 ****** HSPICE -- H-2013.03-SP2 64-BIT (Aug 26 2013) win64 ******               
  Copyright (C) 2013 Synopsys, Inc. All Rights Reserved.                        
  Unpublished-rights reserved under US copyright laws.
  This program is protected by law and is subject to the
  terms and conditions of the license agreement from Synopsys.
  Use of this program is your acceptance to be bound by the
  license agreement. HSPICE is the trademark of Synopsys, Inc.
  Input File: normal_crossbar_normal_transistor_big_resistance_range.sp         
  Command line options: -i normal_crossbar_normal_transistor_big_resistance_range.sp -o normal_crossbar_normal_transistor_big_resistance_range.lis
  lic:  
  lic: FLEXlm: v10.9.8 
  lic: USER:   Alireza              HOSTNAME: DESKTOP-O03KROI 
  lic: HOSTID: "f8e4e3ae3854 005056c00001 005056c00008 444553544f53 00fff93d48a0
  f8e4e3ae3850 f8e4e3a
  lic: Using FLEXlm license file: 
  lic: C:\hspice_lic\synopsys.dat 
  lic: Checkout 1 hspice 
  lic: License/Maintenance for hspice will expire on 31-dec-2019/2019.12 
  lic: NODE LOCKED license on hostid "f8e4e3ae3854 005056c00001 005056c00008 444
 553544f53 00fff93d48a
  lic:   
 Init: read install configuration file: C:\synopsys\Hspice_H-2013.03-SP2\meta.cfg
 Loading pVA library normal_crossbar_normal_transistor_big_resistance_range.pvadir\pvaRTL_win64.dll...
1****** HSPICE -- H-2013.03-SP2 64-BIT (Aug 26 2013) win64 ******               
 ******  
 normal crossbar with normal transistors and big resistance range of memristors

  ******  circuit name directory
 circuit number to circuit name directory
   number circuitname                     definition         multiplier
        0 main circuit
        1 x1.                             RRAM(va)           1.00 
        2 x2.                             RRAM(va)           1.00 
        3 x3.                             RRAM(va)           1.00 
        4 x4.                             RRAM(va)           1.00 
  **info** (normal_crossbar_normal_transistor_big_resistance_range.sp:48) DC voltage reset to initial transient source value              in source        0:v_bias              new dc=  0.0000D+00
 ** warning** associated with encrypted blocks were suppressed

 **info** *pvaI* Creating VA module (RRAM) for instance X4 with gmd reduction

 **info** *pvaI* Creating VA module (RRAM) for instance X3 with gmd reduction

 **info** *pvaI* Creating VA module (RRAM) for instance X2 with gmd reduction

 **info** *pvaI* Creating VA module (RRAM) for instance X1 with gmd reduction

  

 **warning** the following singular supplies were terminated to 1 meg resistor 
   supply       node1            node2
  v_expected              0:expected         defined in subckt 0                     0:0                defined in subckt 0               
  hv                      0:vo               defined in subckt 0                     0:0                defined in subckt 0               
      
 *****************************************************************
 ******  option summary
 ******
 runlvl  = 3         bypass  = 2         
  Opening plot unit= 79
 file=normal_crossbar_normal_transistor_big_resistance_range.pa0

 **info** dc convergence successful
 you can increase the efficiency of the
 operating point calculation by setting dcon= 1
 in the .option statement
1****** HSPICE -- H-2013.03-SP2 64-BIT (Aug 26 2013) win64 ******               
 ******  
 normal crossbar with normal transistors and big resistance range of memristors

  ******  operating point information tnom=  25.000 temp=  25.000 *****
 ***** operating point status is voltage   simulation time is     0.     
    node    =voltage      node    =voltage      node    =voltage

 +0:bias    =   0.      0:bl1     = 333.3333m 0:bl2     =   1.0000 
 +0:bl3     =   0.      0:bl4     =   1.0000  0:expected=   1.0000 
 +0:nb1     =  58.7476m 0:nb2     = 139.1168m 0:nb3     =   1.0055u
 +0:nb4     = 654.8024u 0:sl1     =   0.      0:vo      = 855.4614m
 +0:wl      =   1.0000 

 ******  
 normal crossbar with normal transistors and big resistance range of memristors

  ******  transient analysis tnom=  25.000 temp=  25.000 *****

   *** data name = vector  1st sweep ***

 avgpower=  11.5540u  from=   0.          to=  10.0300u
 avg_error= 151.6467m  from=   0.          to=  10.0300u
 avg_expected_output=   1.0145   from=   0.          to=  10.0300u
 t0000_1111= 455.7689f  targ=  10.0100u   trig=  10.0100u
 t1111_0000= 286.2424f  targ=  10.0200u   trig=  10.0200u

a


   *** data name = vector    1st sweep ***


      time       v(expected,vo)
 (a       )      50.0000m     100.0000m     150.0000m     200.0000m    250.0000m
                      +             +             +             +             + 
    0.       144.539m-+------+------+------+----a-+------+------+------+------+-
    0.       144.539m +      +      +      +    a +      +      +      +      + 
    0.       144.539m +      +      +      +    a +      +      +      +      + 
    0.       144.539m +      +      +      +    a +      +      +      +      + 
    0.       144.539m +      +      +      +    a +      +      +      +      + 
    0.       144.539m +      +      +      +    a +      +      +      +      + 
    0.       144.539m +      +      +      +    a +      +      +      +      + 
    0.       144.539m +      +      +      +    a +      +      +      +      + 
    0.       144.539m +      +      +      +    a +      +      +      +      + 
    0.       144.539m +      +      +      +    a +      +      +      +      + 
    0.       144.539m-+------+------+------+----a-+------+------+------+------+-
    0.       144.539m +      +      +      +    a +      +      +      +      + 
    0.       144.539m +      +      +      +    a +      +      +      +      + 
    0.       144.539m +      +      +      +    a +      +      +      +      + 
    0.       144.539m +      +      +      +    a +      +      +      +      + 
    0.       144.539m +      +      +      +    a +      +      +      +      + 
    0.       144.539m +      +      +      +    a +      +      +      +      + 
    0.       144.539m +      +      +      +    a +      +      +      +      + 
    0.       144.539m +      +      +      +    a +      +      +      +      + 
    0.       144.539m +      +      +      +    a +      +      +      +      + 
    0.       144.539m-+------+------+------+----a-+------+------+------+------+-
    0.       144.539m +      +      +      +    a +      +      +      +      + 
    0.       144.539m +      +      +      +    a +      +      +      +      + 
    0.       144.539m +      +      +      +    a +      +      +      +      + 
    0.       144.539m +      +      +      +    a +      +      +      +      + 
    0.       144.539m +      +      +      +    a +      +      +      +      + 
    0.       144.539m +      +      +      +    a +      +      +      +      + 
    0.       144.539m +      +      +      +    a +      +      +      +      + 
    0.       144.539m +      +      +      +    a +      +      +      +      + 
    0.       144.539m +      +      +      +    a +      +      +      +      + 
    0.       144.539m-+------+------+------+----a-+------+------+------+------+-
    0.       144.539m +      +      +      +    a +      +      +      +      + 
    0.       144.539m +      +      +      +    a +      +      +      +      + 
    0.       144.539m +      +      +      +    a +      +      +      +      + 
    0.       144.539m +      +      +      +    a +      +      +      +      + 
    0.       144.539m +      +      +      +    a +      +      +      +      + 
    0.       144.539m +      +      +      +    a +      +      +      +      + 
    0.       144.539m +      +      +      +    a +      +      +      +      + 
    0.       144.539m +      +      +      +    a +      +      +      +      + 
    0.       144.539m +      +      +      +    a +      +      +      +      + 
    0.       144.539m-+------+------+------+----a-+------+------+------+------+-
    0.       144.539m +      +      +      +    a +      +      +      +      + 
    0.       144.539m +      +      +      +    a +      +      +      +      + 
    0.       144.539m +      +      +      +    a +      +      +      +      + 
    0.       144.539m +      +      +      +    a +      +      +      +      + 
    0.       144.539m +      +      +      +    a +      +      +      +      + 
    0.       144.539m +      +      +      +    a +      +      +      +      + 
    0.       144.539m +      +      +      +    a +      +      +      +      + 
    0.       144.539m +      +      +      +    a +      +      +      +      + 
    0.       144.539m +      +      +      +    a +      +      +      +      + 
    0.       144.539m-+------+------+------+----a-+------+------+------+------+-
    0.       144.539m +      +      +      +    a +      +      +      +      + 
    0.       144.539m +      +      +      +    a +      +      +      +      + 
    0.       144.539m +      +      +      +    a +      +      +      +      + 
    0.       144.539m +      +      +      +    a +      +      +      +      + 
    0.       144.539m +      +      +      +    a +      +      +      +      + 
    0.       144.539m +      +      +      +    a +      +      +      +      + 
    0.       144.539m +      +      +      +    a +      +      +      +      + 
    0.       144.539m +      +      +      +    a +      +      +      +      + 
    0.       144.539m +      +      +      +    a +      +      +      +      + 
    0.       144.539m-+------+------+------+----a-+------+------+------+------+-
    0.       144.539m +      +      +      +    a +      +      +      +      + 
    0.       144.539m +      +      +      +    a +      +      +      +      + 
    0.       144.539m +      +      +      +    a +      +      +      +      + 
    0.       144.539m +      +      +      +    a +      +      +      +      + 
    0.       144.539m +      +      +      +    a +      +      +      +      + 
    0.       144.539m +      +      +      +    a +      +      +      +      + 
    0.       144.539m +      +      +      +    a +      +      +      +      + 
    0.       144.539m +      +      +      +    a +      +      +      +      + 
    0.       144.539m +      +      +      +    a +      +      +      +      + 
    0.       144.539m-+------+------+------+----a-+------+------+------+------+-
    0.       144.539m +      +      +      +    a +      +      +      +      + 
    0.       144.539m +      +      +      +    a +      +      +      +      + 
    0.       144.539m +      +      +      +    a +      +      +      +      + 
    0.       144.539m +      +      +      +    a +      +      +      +      + 
    0.       144.539m +      +      +      +    a +      +      +      +      + 
    0.       144.539m +      +      +      +    a +      +      +      +      + 
    0.       144.539m +      +      +      +    a +      +      +      +      + 
    0.       144.539m +      +      +      +    a +      +      +      +      + 
    0.       144.539m +      +      +      +    a +      +      +      +      + 
    0.       144.539m-+------+------+------+----a-+------+------+------+------+-
    0.       144.539m +      +      +      +    a +      +      +      +      + 
    0.       144.539m +      +      +      +    a +      +      +      +      + 
    0.       144.539m +      +      +      +    a +      +      +      +      + 
    0.       144.539m +      +      +      +    a +      +      +      +      + 
    0.       144.539m +      +      +      +    a +      +      +      +      + 
    0.       144.539m +      +      +      +    a +      +      +      +      + 
    0.       144.539m +      +      +      +    a +      +      +      +      + 
    0.       144.539m +      +      +      +    a +      +      +      +      + 
    0.       144.539m +      +      +      +    a +      +      +      +      + 
    0.       144.539m-+------+------+------+----a-+------+------+------+------+-
    0.       144.539m +      +      +      +    a +      +      +      +      + 
    0.       144.539m +      +      +      +    a +      +      +      +      + 
    0.       144.539m +      +      +      +    a +      +      +      +      + 
    0.       144.539m +      +      +      +    a +      +      +      +      + 
    0.       144.539m +      +      +      +    a +      +      +      +      + 
    0.       144.539m +      +      +      +    a +      +      +      +      + 
    0.       144.539m +      +      +      +    a +      +      +      +      + 
    0.       144.539m +      +      +      +    a +      +      +      +      + 
    0.       144.539m +      +      +      +    a +      +      +      +      + 
    0.       144.539m-+------+------+------+----a-+------+------+------+------+-
    0.       144.539m +      +      +      +    a +      +      +      +      + 
    0.       144.539m +      +      +      +    a +      +      +      +      + 
    0.       144.539m +      +      +      +    a +      +      +      +      + 
    0.       144.539m +      +      +      +    a +      +      +      +      + 
    0.       144.539m +      +      +      +    a +      +      +      +      + 
    0.       144.539m +      +      +      +    a +      +      +      +      + 
    0.       144.539m +      +      +      +    a +      +      +      +      + 
    0.       144.539m +      +      +      +    a +      +      +      +      + 
    0.       144.539m +      +      +      +    a +      +      +      +      + 
    0.       144.539m-+------+------+------+----a-+------+------+------+------+-
    0.       144.539m +      +      +      +    a +      +      +      +      + 
    0.       144.539m +      +      +      +    a +      +      +      +      + 
    0.       144.539m +      +      +      +    a +      +      +      +      + 
    0.       144.539m +      +      +      +    a +      +      +      +      + 
    0.       144.539m +      +      +      +    a +      +      +      +      + 
    0.       144.539m +      +      +      +    a +      +      +      +      + 
    0.       144.539m +      +      +      +    a +      +      +      +      + 
    0.       144.539m +      +      +      +    a +      +      +      +      + 
    0.       144.539m +      +      +      +    a +      +      +      +      + 
    0.       144.539m-+------+------+------+----a-+------+------+------+------+-
    0.       144.539m +      +      +      +    a +      +      +      +      + 
    0.       144.539m +      +      +      +    a +      +      +      +      + 
    0.       144.539m +      +      +      +    a +      +      +      +      + 
    0.       144.539m +      +      +      +    a +      +      +      +      + 
    0.       144.539m +      +      +      +    a +      +      +      +      + 
    0.       144.539m +      +      +      +    a +      +      +      +      + 
    0.       144.539m +      +      +      +    a +      +      +      +      + 
    0.       144.539m +      +      +      +    a +      +      +      +      + 
    0.       144.539m +      +      +      +    a +      +      +      +      + 
    0.       144.539m-+------+------+------+----a-+------+------+------+------+-
    0.       144.539m +      +      +      +    a +      +      +      +      + 
    0.       144.539m +      +      +      +    a +      +      +      +      + 
    0.       144.539m +      +      +      +    a +      +      +      +      + 
    0.       144.539m +      +      +      +    a +      +      +      +      + 
    0.       144.539m +      +      +      +    a +      +      +      +      + 
    0.       144.539m +      +      +      +    a +      +      +      +      + 
    0.       144.539m +      +      +      +    a +      +      +      +      + 
    0.       144.539m +      +      +      +    a +      +      +      +      + 
    0.       144.539m +      +      +      +    a +      +      +      +      + 
    0.       144.539m-+------+------+------+----a-+------+------+------+------+-
    0.       144.539m +      +      +      +    a +      +      +      +      + 
    0.       144.539m +      +      +      +    a +      +      +      +      + 
    0.       144.539m +      +      +      +    a +      +      +      +      + 
    0.       144.539m +      +      +      +    a +      +      +      +      + 
    0.       144.539m +      +      +      +    a +      +      +      +      + 
    0.       144.539m +      +      +      +    a +      +      +      +      + 
    0.       144.539m +      +      +      +    a +      +      +      +      + 
    0.       144.539m +      +      +      +    a +      +      +      +      + 
    0.       144.539m +      +      +      +    a +      +      +      +      + 
    0.       144.539m-+------+------+------+----a-+------+------+------+------+-
    0.       144.539m +      +      +      +    a +      +      +      +      + 
    0.       144.539m +      +      +      +    a +      +      +      +      + 
    0.       144.539m +      +      +      +    a +      +      +      +      + 
    0.       144.539m +      +      +      +    a +      +      +      +      + 
    0.       144.539m +      +      +      +    a +      +      +      +      + 
    0.       144.539m +      +      +      +    a +      +      +      +      + 
    0.       144.539m +      +      +      +    a +      +      +      +      + 
    0.       144.539m +      +      +      +    a +      +      +      +      + 
    0.       144.539m +      +      +      +    a +      +      +      +      + 
    0.       144.539m-+------+------+------+----a-+------+------+------+------+-
    0.       144.539m +      +      +      +    a +      +      +      +      + 
    0.       144.539m +      +      +      +    a +      +      +      +      + 
    0.       144.539m +      +      +      +    a +      +      +      +      + 
    0.       144.539m +      +      +      +    a +      +      +      +      + 
    0.       144.539m +      +      +      +    a +      +      +      +      + 
    0.       144.539m +      +      +      +    a +      +      +      +      + 
    0.       144.539m +      +      +      +    a +      +      +      +      + 
    0.       144.539m +      +      +      +    a +      +      +      +      + 
    0.       144.539m +      +      +      +    a +      +      +      +      + 
    0.       144.539m-+------+------+------+----a-+------+------+------+------+-
    0.       144.539m +      +      +      +    a +      +      +      +      + 
    0.       144.539m +      +      +      +    a +      +      +      +      + 
    0.       144.539m +      +      +      +    a +      +      +      +      + 
    0.       144.539m +      +      +      +    a +      +      +      +      + 
    0.       144.539m +      +      +      +    a +      +      +      +      + 
    0.       144.539m +      +      +      +    a +      +      +      +      + 
    0.       144.539m +      +      +      +    a +      +      +      +      + 
    0.       144.539m +      +      +      +    a +      +      +      +      + 
    0.       144.539m +      +      +      +    a +      +      +      +      + 
    0.       144.539m-+------+------+------+----a-+------+------+------+------+-
    0.       144.539m +      +      +      +    a +      +      +      +      + 
    0.       144.539m +      +      +      +    a +      +      +      +      + 
    0.       144.539m +      +      +      +    a +      +      +      +      + 
    0.       144.539m +      +      +      +    a +      +      +      +      + 
    0.       144.539m +      +      +      +    a +      +      +      +      + 
    0.       144.539m +      +      +      +    a +      +      +      +      + 
    0.       144.539m +      +      +      +    a +      +      +      +      + 
    0.       144.539m +      +      +      +    a +      +      +      +      + 
    0.       144.539m +      +      +      +    a +      +      +      +      + 
    0.       144.539m-+------+------+------+----a-+------+------+------+------+-
    0.       144.539m +      +      +      +    a +      +      +      +      + 
    0.       144.539m +      +      +      +    a +      +      +      +      + 
    0.       144.539m +      +      +      +    a +      +      +      +      + 
    0.       144.539m +      +      +      +    a +      +      +      +      + 
    0.       144.539m +      +      +      +    a +      +      +      +      + 
    0.       144.539m +      +      +      +    a +      +      +      +      + 
    0.       144.539m +      +      +      +    a +      +      +      +      + 
    0.       144.539m +      +      +      +    a +      +      +      +      + 
    0.       144.539m +      +      +      +    a +      +      +      +      + 
    0.       144.539m-+------+------+------+----a-+------+------+------+------+-
    0.       144.539m +      +      +      +    a +      +      +      +      + 
    0.       144.539m +      +      +      +    a +      +      +      +      + 
    0.       144.539m +      +      +      +    a +      +      +      +      + 
    0.       144.539m +      +      +      +    a +      +      +      +      + 
    0.       144.539m +      +      +      +    a +      +      +      +      + 
    0.       144.539m +      +      +      +    a +      +      +      +      + 
    0.       144.539m +      +      +      +    a +      +      +      +      + 
    0.       144.539m +      +      +      +    a +      +      +      +      + 
    0.       144.539m +      +      +      +    a +      +      +      +      + 
    0.       144.539m-+------+------+------+----a-+------+------+------+------+-
    0.       144.539m +      +      +      +    a +      +      +      +      + 
    0.       144.539m +      +      +      +    a +      +      +      +      + 
    0.       144.539m +      +      +      +    a +      +      +      +      + 
    0.       144.539m +      +      +      +    a +      +      +      +      + 
    0.       144.539m +      +      +      +    a +      +      +      +      + 
    0.       144.539m +      +      +      +    a +      +      +      +      + 
    0.       144.539m +      +      +      +    a +      +      +      +      + 
    0.       144.539m +      +      +      +    a +      +      +      +      + 
    0.       144.539m +      +      +      +    a +      +      +      +      + 
    0.       144.539m-+------+------+------+----a-+------+------+------+------+-
    0.       144.539m +      +      +      +    a +      +      +      +      + 
    0.       144.539m +      +      +      +    a +      +      +      +      + 
    0.       144.539m +      +      +      +    a +      +      +      +      + 
    0.       144.539m +      +      +      +    a +      +      +      +      + 
    0.       144.539m +      +      +      +    a +      +      +      +      + 
    0.       144.539m +      +      +      +    a +      +      +      +      + 
    0.       144.539m +      +      +      +    a +      +      +      +      + 
    0.       144.539m +      +      +      +    a +      +      +      +      + 
    0.       144.539m +      +      +      +    a +      +      +      +      + 
    0.       144.539m-+------+------+------+----a-+------+------+------+------+-
    0.       144.539m +      +      +      +    a +      +      +      +      + 
    0.       144.539m +      +      +      +    a +      +      +      +      + 
    0.       144.539m +      +      +      +    a +      +      +      +      + 
    0.       144.539m +      +      +      +    a +      +      +      +      + 
    0.       144.539m +      +      +      +    a +      +      +      +      + 
    0.       144.539m +      +      +      +    a +      +      +      +      + 
    0.       144.539m +      +      +      +    a +      +      +      +      + 
    0.       144.539m +      +      +      +    a +      +      +      +      + 
    0.       144.539m +      +      +      +    a +      +      +      +      + 
    0.       144.539m-+------+------+------+----a-+------+------+------+------+-
    0.       144.539m +      +      +      +    a +      +      +      +      + 
    0.       144.539m +      +      +      +    a +      +      +      +      + 
    0.       144.539m +      +      +      +    a +      +      +      +      + 
    0.       144.539m +      +      +      +    a +      +      +      +      + 
    0.       144.539m +      +      +      +    a +      +      +      +      + 
    0.       144.539m +      +      +      +    a +      +      +      +      + 
    0.       144.539m +      +      +      +    a +      +      +      +      + 
    0.       144.539m +      +      +      +    a +      +      +      +      + 
    0.       144.539m +      +      +      +    a +      +      +      +      + 
    0.       144.539m-+------+------+------+----a-+------+------+------+------+-
    0.       144.539m +      +      +      +    a +      +      +      +      + 
    0.       144.539m +      +      +      +    a +      +      +      +      + 
    0.       144.539m +      +      +      +    a +      +      +      +      + 
    0.       144.539m +      +      +      +    a +      +      +      +      + 
    0.       144.539m +      +      +      +    a +      +      +      +      + 
    0.       144.539m +      +      +      +    a +      +      +      +      + 
    0.       144.539m +      +      +      +    a +      +      +      +      + 
    0.       144.539m +      +      +      +    a +      +      +      +      + 
    0.       144.539m +      +      +      +    a +      +      +      +      + 
    0.       144.539m-+------+------+------+----a-+------+------+------+------+-
    0.       144.539m +      +      +      +    a +      +      +      +      + 
    0.       144.539m +      +      +      +    a +      +      +      +      + 
    0.       144.539m +      +      +      +    a +      +      +      +      + 
    0.       144.539m +      +      +      +    a +      +      +      +      + 
    0.       144.539m +      +      +      +    a +      +      +      +      + 
    0.       144.539m +      +      +      +    a +      +      +      +      + 
    0.       144.539m +      +      +      +    a +      +      +      +      + 
    0.       144.539m +      +      +      +    a +      +      +      +      + 
    0.       144.539m +      +      +      +    a +      +      +      +      + 
    0.       144.539m-+------+------+------+----a-+------+------+------+------+-
    0.       144.539m +      +      +      +    a +      +      +      +      + 
    0.       144.539m +      +      +      +    a +      +      +      +      + 
    0.       144.539m +      +      +      +    a +      +      +      +      + 
    0.       144.539m +      +      +      +    a +      +      +      +      + 
    0.       144.539m +      +      +      +    a +      +      +      +      + 
    0.       144.539m +      +      +      +    a +      +      +      +      + 
    0.       144.539m +      +      +      +    a +      +      +      +      + 
    0.       144.539m +      +      +      +    a +      +      +      +      + 
    0.       144.539m +      +      +      +    a +      +      +      +      + 
    0.       144.539m-+------+------+------+----a-+------+------+------+------+-
    0.       144.539m +      +      +      +    a +      +      +      +      + 
    0.       144.539m +      +      +      +    a +      +      +      +      + 
    0.       144.539m +      +      +      +    a +      +      +      +      + 
    0.       144.539m +      +      +      +    a +      +      +      +      + 
    0.       144.539m +      +      +      +    a +      +      +      +      + 
    0.       144.539m +      +      +      +    a +      +      +      +      + 
    0.       144.539m +      +      +      +    a +      +      +      +      + 
    0.       144.539m +      +      +      +    a +      +      +      +      + 
    0.       144.539m +      +      +      +    a +      +      +      +      + 
    0.       144.539m-+------+------+------+----a-+------+------+------+------+-
    0.       144.539m +      +      +      +    a +      +      +      +      + 
    0.       144.539m +      +      +      +    a +      +      +      +      + 
    0.       144.539m +      +      +      +    a +      +      +      +      + 
    0.       144.539m +      +      +      +    a +      +      +      +      + 
    0.       144.539m +      +      +      +    a +      +      +      +      + 
    0.       144.539m +      +      +      +    a +      +      +      +      + 
    0.       144.539m +      +      +      +    a +      +      +      +      + 
    0.       144.539m +      +      +      +    a +      +      +      +      + 
    0.       144.539m +      +      +      +    a +      +      +      +      + 
    0.       144.539m-+------+------+------+----a-+------+------+------+------+-
    0.       144.539m +      +      +      +    a +      +      +      +      + 
    0.       144.539m +      +      +      +    a +      +      +      +      + 
    0.       144.539m +      +      +      +    a +      +      +      +      + 
    0.       144.539m +      +      +      +    a +      +      +      +      + 
    0.       144.539m +      +      +      +    a +      +      +      +      + 
    0.       144.539m +      +      +      +    a +      +      +      +      + 
    0.       144.539m +      +      +      +    a +      +      +      +      + 
    0.       144.539m +      +      +      +    a +      +      +      +      + 
    0.       144.539m +      +      +      +    a +      +      +      +      + 
    0.       144.539m-+------+------+------+----a-+------+------+------+------+-
    0.       144.539m +      +      +      +    a +      +      +      +      + 
    0.       144.539m +      +      +      +    a +      +      +      +      + 
    0.       144.539m +      +      +      +    a +      +      +      +      + 
    0.       144.539m +      +      +      +    a +      +      +      +      + 
    0.       144.539m +      +      +      +    a +      +      +      +      + 
    0.       144.539m +      +      +      +    a +      +      +      +      + 
    0.       144.539m +      +      +      +    a +      +      +      +      + 
    0.       144.539m +      +      +      +    a +      +      +      +      + 
    0.       144.539m +      +      +      +    a +      +      +      +      + 
    0.       144.539m-+------+------+------+----a-+------+------+------+------+-
    0.       144.539m +      +      +      +    a +      +      +      +      + 
    0.       144.539m +      +      +      +    a +      +      +      +      + 
    0.       144.539m +      +      +      +    a +      +      +      +      + 
    0.       144.539m +      +      +      +    a +      +      +      +      + 
    0.       144.539m +      +      +      +    a +      +      +      +      + 
    0.       144.539m +      +      +      +    a +      +      +      +      + 
    0.       144.539m +      +      +      +    a +      +      +      +      + 
    0.       144.539m +      +      +      +    a +      +      +      +      + 
    0.       144.539m +      +      +      +    a +      +      +      +      + 
    0.       144.539m-+------+------+------+----a-+------+------+------+------+-
    0.       144.539m +      +      +      +    a +      +      +      +      + 
    0.       144.539m +      +      +      +    a +      +      +      +      + 
    0.       144.539m +      +      +      +    a +      +      +      +      + 
    0.       144.539m +      +      +      +    a +      +      +      +      + 
    0.       144.539m +      +      +      +    a +      +      +      +      + 
    0.       144.539m +      +      +      +    a +      +      +      +      + 
    0.       144.539m +      +      +      +    a +      +      +      +      + 
    0.       144.539m +      +      +      +    a +      +      +      +      + 
    0.       144.539m +      +      +      +    a +      +      +      +      + 
    0.       144.539m-+------+------+------+----a-+------+------+------+------+-
    0.       144.539m +      +      +      +    a +      +      +      +      + 
    0.       144.539m +      +      +      +    a +      +      +      +      + 
    0.       144.539m +      +      +      +    a +      +      +      +      + 
    0.       144.539m +      +      +      +    a +      +      +      +      + 
    0.       144.539m +      +      +      +    a +      +      +      +      + 
    0.       144.539m +      +      +      +    a +      +      +      +      + 
    0.       144.539m +      +      +      +    a +      +      +      +      + 
    0.       144.539m +      +      +      +    a +      +      +      +      + 
    0.       144.539m +      +      +      +    a +      +      +      +      + 
    0.       144.539m-+------+------+------+----a-+------+------+------+------+-
    0.       144.539m +      +      +      +    a +      +      +      +      + 
    0.       144.539m +      +      +      +    a +      +      +      +      + 
    0.       144.539m +      +      +      +    a +      +      +      +      + 
    0.       144.539m +      +      +      +    a +      +      +      +      + 
    0.       144.539m +      +      +      +    a +      +      +      +      + 
    0.       144.539m +      +      +      +    a +      +      +      +      + 
    0.       144.539m +      +      +      +    a +      +      +      +      + 
    0.       144.539m +      +      +      +    a +      +      +      +      + 
    0.       144.539m +      +      +      +    a +      +      +      +      + 
    0.       144.539m-+------+------+------+----a-+------+------+------+------+-
    0.       144.539m +      +      +      +    a +      +      +      +      + 
    0.       144.539m +      +      +      +    a +      +      +      +      + 
    0.       144.539m +      +      +      +    a +      +      +      +      + 
    0.       144.539m +      +      +      +    a +      +      +      +      + 
    0.       144.539m +      +      +      +    a +      +      +      +      + 
    0.       144.539m +      +      +      +    a +      +      +      +      + 
    0.       144.539m +      +      +      +    a +      +      +      +      + 
    0.       144.539m +      +      +      +    a +      +      +      +      + 
    0.       144.539m +      +      +      +    a +      +      +      +      + 
    0.       144.539m-+------+------+------+----a-+------+------+------+------+-
    0.       144.539m +      +      +      +    a +      +      +      +      + 
    0.       144.539m +      +      +      +    a +      +      +      +      + 
    0.       144.539m +      +      +      +    a +      +      +      +      + 
    0.       144.539m +      +      +      +    a +      +      +      +      + 
    0.       144.539m +      +      +      +    a +      +      +      +      + 
    0.       144.539m +      +      +      +    a +      +      +      +      + 
    0.       144.539m +      +      +      +    a +      +      +      +      + 
    0.       144.539m +      +      +      +    a +      +      +      +      + 
    0.       144.539m +      +      +      +    a +      +      +      +      + 
    0.       144.539m-+------+------+------+----a-+------+------+------+------+-
    0.       144.539m +      +      +      +    a +      +      +      +      + 
    0.       144.539m +      +      +      +    a +      +      +      +      + 
    0.       144.539m +      +      +      +    a +      +      +      +      + 
    0.       144.539m +      +      +      +    a +      +      +      +      + 
    0.       144.539m +      +      +      +    a +      +      +      +      + 
    0.       144.539m +      +      +      +    a +      +      +      +      + 
    0.       144.539m +      +      +      +    a +      +      +      +      + 
    0.       144.539m +      +      +      +    a +      +      +      +      + 
    0.       144.539m +      +      +      +    a +      +      +      +      + 
    0.       144.539m-+------+------+------+----a-+------+------+------+------+-
    0.       144.539m +      +      +      +    a +      +      +      +      + 
    0.       144.539m +      +      +      +    a +      +      +      +      + 
    0.       144.539m +      +      +      +    a +      +      +      +      + 
    0.       144.539m +      +      +      +    a +      +      +      +      + 
    0.       144.539m +      +      +      +    a +      +      +      +      + 
    0.       144.539m +      +      +      +    a +      +      +      +      + 
    0.       144.539m +      +      +      +    a +      +      +      +      + 
    0.       144.539m +      +      +      +    a +      +      +      +      + 
    0.       144.539m +      +      +      +    a +      +      +      +      + 
    0.       144.539m-+------+------+------+----a-+------+------+------+------+-
    0.       144.539m +      +      +      +    a +      +      +      +      + 
    0.       144.539m +      +      +      +    a +      +      +      +      + 
    0.       144.539m +      +      +      +    a +      +      +      +      + 
    0.       144.539m +      +      +      +    a +      +      +      +      + 
    0.       144.539m +      +      +      +    a +      +      +      +      + 
    0.       144.539m +      +      +      +    a +      +      +      +      + 
    0.       144.539m +      +      +      +    a +      +      +      +      + 
    0.       144.539m +      +      +      +    a +      +      +      +      + 
    0.       144.539m +      +      +      +    a +      +      +      +      + 
    0.       144.539m-+------+------+------+----a-+------+------+------+------+-
    0.       144.539m +      +      +      +    a +      +      +      +      + 
    0.       144.539m +      +      +      +    a +      +      +      +      + 
    0.       144.539m +      +      +      +    a +      +      +      +      + 
    0.       144.539m +      +      +      +    a +      +      +      +      + 
    0.       144.539m +      +      +      +    a +      +      +      +      + 
    0.       144.539m +      +      +      +    a +      +      +      +      + 
    0.       144.539m +      +      +      +    a +      +      +      +      + 
    0.       144.539m +      +      +      +    a +      +      +      +      + 
    0.       144.539m +      +      +      +    a +      +      +      +      + 
    0.       144.539m-+------+------+------+----a-+------+------+------+------+-
    0.       144.539m +      +      +      +    a +      +      +      +      + 
    0.       144.539m +      +      +      +    a +      +      +      +      + 
    0.       144.539m +      +      +      +    a +      +      +      +      + 
    0.       144.539m +      +      +      +    a +      +      +      +      + 
    0.       144.539m +      +      +      +    a +      +      +      +      + 
    0.       144.539m +      +      +      +    a +      +      +      +      + 
    0.       144.539m +      +      +      +    a +      +      +      +      + 
    0.       144.539m +      +      +      +    a +      +      +      +      + 
    0.       144.539m +      +      +      +    a +      +      +      +      + 
    0.       144.539m-+------+------+------+----a-+------+------+------+------+-
    0.       144.539m +      +      +      +    a +      +      +      +      + 
    0.       144.539m +      +      +      +    a +      +      +      +      + 
    0.       144.539m +      +      +      +    a +      +      +      +      + 
    0.       144.539m +      +      +      +    a +      +      +      +      + 
    0.       144.539m +      +      +      +    a +      +      +      +      + 
    0.       144.539m +      +      +      +    a +      +      +      +      + 
    0.       144.539m +      +      +      +    a +      +      +      +      + 
    0.       144.539m +      +      +      +    a +      +      +      +      + 
    0.       144.539m +      +      +      +    a +      +      +      +      + 
    0.       144.539m-+------+------+------+----a-+------+------+------+------+-
    0.       144.539m +      +      +      +    a +      +      +      +      + 
    0.       144.539m +      +      +      +    a +      +      +      +      + 
    0.       144.539m +      +      +      +    a +      +      +      +      + 
    0.       144.539m +      +      +      +    a +      +      +      +      + 
    0.       144.539m +      +      +      +    a +      +      +      +      + 
    0.       144.539m +      +      +      +    a +      +      +      +      + 
    0.       144.539m +      +      +      +    a +      +      +      +      + 
    0.       144.539m +      +      +      +    a +      +      +      +      + 
    0.       144.539m +      +      +      +    a +      +      +      +      + 
    0.       144.539m-+------+------+------+----a-+------+------+------+------+-
    0.       144.539m +      +      +      +    a +      +      +      +      + 
    0.       144.539m +      +      +      +    a +      +      +      +      + 
    0.       144.539m +      +      +      +    a +      +      +      +      + 
    0.       144.539m +      +      +      +    a +      +      +      +      + 
    0.       144.539m +      +      +      +    a +      +      +      +      + 
    0.       144.539m +      +      +      +    a +      +      +      +      + 
    0.       144.539m +      +      +      +    a +      +      +      +      + 
    0.       144.539m +      +      +      +    a +      +      +      +      + 
    0.       144.539m +      +      +      +    a +      +      +      +      + 
    0.       144.539m-+------+------+------+----a-+------+------+------+------+-
    0.       144.539m +      +      +      +    a +      +      +      +      + 
    0.       144.539m +      +      +      +    a +      +      +      +      + 
    0.       144.539m +      +      +      +    a +      +      +      +      + 
    0.       144.539m +      +      +      +    a +      +      +      +      + 
    0.       144.539m +      +      +      +    a +      +      +      +      + 
    0.       144.539m +      +      +      +    a +      +      +      +      + 
    0.       144.539m +      +      +      +    a +      +      +      +      + 
    0.       144.539m +      +      +      +    a +      +      +      +      + 
    0.       144.539m +      +      +      +    a +      +      +      +      + 
    0.       144.539m-+------+------+------+----a-+------+------+------+------+-
    0.       144.539m +      +      +      +    a +      +      +      +      + 
    0.       144.539m +      +      +      +    a +      +      +      +      + 
    0.       144.539m +      +      +      +    a +      +      +      +      + 
    0.       144.539m +      +      +      +    a +      +      +      +      + 
    0.       144.539m +      +      +      +    a +      +      +      +      + 
    0.       144.539m +      +      +      +    a +      +      +      +      + 
    0.       144.539m +      +      +      +    a +      +      +      +      + 
    0.       144.539m +      +      +      +    a +      +      +      +      + 
    0.       144.539m +      +      +      +    a +      +      +      +      + 
    0.       144.539m-+------+------+------+----a-+------+------+------+------+-
    0.       144.539m +      +      +      +    a +      +      +      +      + 
    0.       144.539m +      +      +      +    a +      +      +      +      + 
    0.       144.539m +      +      +      +    a +      +      +      +      + 
    0.       144.539m +      +      +      +    a +      +      +      +      + 
    0.       144.539m +      +      +      +    a +      +      +      +      + 
    0.       144.539m +      +      +      +    a +      +      +      +      + 
    0.       144.539m +      +      +      +    a +      +      +      +      + 
    0.       144.539m +      +      +      +    a +      +      +      +      + 
    0.       144.539m +      +      +      +    a +      +      +      +      + 
    0.       144.539m-+------+------+------+----a-+------+------+------+------+-
    0.       144.539m +      +      +      +    a +      +      +      +      + 
    0.       144.539m +      +      +      +    a +      +      +      +      + 
    0.       144.539m +      +      +      +    a +      +      +      +      + 
    0.       144.539m +      +      +      +    a +      +      +      +      + 
    0.       144.539m +      +      +      +    a +      +      +      +      + 
    0.       144.539m +      +      +      +    a +      +      +      +      + 
    0.       144.539m +      +      +      +    a +      +      +      +      + 
    0.       144.539m +      +      +      +    a +      +      +      +      + 
    0.       144.539m +      +      +      +    a +      +      +      +      + 
    0.       144.539m-+------+------+------+----a-+------+------+------+------+-
    0.       144.539m +      +      +      +    a +      +      +      +      + 
    0.       144.539m +      +      +      +    a +      +      +      +      + 
    0.       144.539m +      +      +      +    a +      +      +      +      + 
    0.       144.539m +      +      +      +    a +      +      +      +      + 
    0.       144.539m +      +      +      +    a +      +      +      +      + 
    0.       144.539m +      +      +      +    a +      +      +      +      + 
    0.       144.539m +      +      +      +    a +      +      +      +      + 
    0.       144.539m +      +      +      +    a +      +      +      +      + 
    0.       144.539m +      +      +      +    a +      +      +      +      + 
    0.       144.539m-+------+------+------+----a-+------+------+------+------+-
    0.       144.539m +      +      +      +    a +      +      +      +      + 
    0.       144.539m +      +      +      +    a +      +      +      +      + 
    0.       144.539m +      +      +      +    a +      +      +      +      + 
    0.       144.539m +      +      +      +    a +      +      +      +      + 
    0.       144.539m +      +      +      +    a +      +      +      +      + 
    0.       144.539m +      +      +      +    a +      +      +      +      + 
    0.       144.539m +      +      +      +    a +      +      +      +      + 
    0.       144.539m +      +      +      +    a +      +      +      +      + 
    0.       144.539m +      +      +      +    a +      +      +      +      + 
    0.       144.539m-+------+------+------+----a-+------+------+------+------+-
    0.       144.539m +      +      +      +    a +      +      +      +      + 
    0.       144.539m +      +      +      +    a +      +      +      +      + 
    0.       144.539m +      +      +      +    a +      +      +      +      + 
    0.       144.539m +      +      +      +    a +      +      +      +      + 
    0.       144.539m +      +      +      +    a +      +      +      +      + 
    0.       144.539m +      +      +      +    a +      +      +      +      + 
    0.       144.539m +      +      +      +    a +      +      +      +      + 
    0.       144.539m +      +      +      +    a +      +      +      +      + 
    0.       144.539m +      +      +      +    a +      +      +      +      + 
    0.       144.539m-+------+------+------+----a-+------+------+------+------+-
    0.       144.539m +      +      +      +    a +      +      +      +      + 
    0.       144.539m +      +      +      +    a +      +      +      +      + 
    0.       144.539m +      +      +      +    a +      +      +      +      + 
    0.       144.539m +      +      +      +    a +      +      +      +      + 
    0.       144.539m +      +      +      +    a +      +      +      +      + 
    0.       144.539m +      +      +      +    a +      +      +      +      + 
    0.       144.539m +      +      +      +    a +      +      +      +      + 
    0.       144.539m +      +      +      +    a +      +      +      +      + 
    0.       144.539m +      +      +      +    a +      +      +      +      + 
    0.       144.539m-+------+------+------+----a-+------+------+------+------+-
    0.       144.539m +      +      +      +    a +      +      +      +      + 
    0.       144.539m +      +      +      +    a +      +      +      +      + 
    0.       144.539m +      +      +      +    a +      +      +      +      + 
    0.       144.539m +      +      +      +    a +      +      +      +      + 
    0.       144.539m +      +      +      +    a +      +      +      +      + 
    0.       144.539m +      +      +      +    a +      +      +      +      + 
    0.       144.539m +      +      +      +    a +      +      +      +      + 
    0.       144.539m +      +      +      +    a +      +      +      +      + 
    0.       144.539m +      +      +      +    a +      +      +      +      + 
    0.       144.539m-+------+------+------+----a-+------+------+------+------+-
    0.       144.539m +      +      +      +    a +      +      +      +      + 
    0.       144.539m +      +      +      +    a +      +      +      +      + 
    0.       144.539m +      +      +      +    a +      +      +      +      + 
    0.       144.539m +      +      +      +    a +      +      +      +      + 
    0.       144.539m +      +      +      +    a +      +      +      +      + 
    0.       144.539m +      +      +      +    a +      +      +      +      + 
    0.       144.539m +      +      +      +    a +      +      +      +      + 
    0.       144.539m +      +      +      +    a +      +      +      +      + 
    0.       144.539m +      +      +      +    a +      +      +      +      + 
    0.       144.539m-+------+------+------+----a-+------+------+------+------+-
    0.       144.539m +      +      +      +    a +      +      +      +      + 
    0.       144.539m +      +      +      +    a +      +      +      +      + 
    0.       144.539m +      +      +      +    a +      +      +      +      + 
    0.       144.539m +      +      +      +    a +      +      +      +      + 
    0.       144.539m +      +      +      +    a +      +      +      +      + 
    0.       144.539m +      +      +      +    a +      +      +      +      + 
    0.       144.539m +      +      +      +    a +      +      +      +      + 
    0.       144.539m +      +      +      +    a +      +      +      +      + 
    0.       144.539m +      +      +      +    a +      +      +      +      + 
    0.       144.539m-+------+------+------+----a-+------+------+------+------+-
    0.       144.539m +      +      +      +    a +      +      +      +      + 
    0.       144.539m +      +      +      +    a +      +      +      +      + 
    0.       144.539m +      +      +      +    a +      +      +      +      + 
    0.       144.539m +      +      +      +    a +      +      +      +      + 
    0.       144.539m +      +      +      +    a +      +      +      +      + 
    0.       144.539m +      +      +      +    a +      +      +      +      + 
    0.       144.539m +      +      +      +    a +      +      +      +      + 
    0.       144.539m +      +      +      +    a +      +      +      +      + 
    0.       144.539m +      +      +      +    a +      +      +      +      + 
    0.       144.539m-+------+------+------+----a-+------+------+------+------+-
    0.       144.539m +      +      +      +    a +      +      +      +      + 
    0.       144.539m +      +      +      +    a +      +      +      +      + 
    0.       144.539m +      +      +      +    a +      +      +      +      + 
    0.       144.539m +      +      +      +    a +      +      +      +      + 
    0.       144.539m +      +      +      +    a +      +      +      +      + 
    0.       144.539m +      +      +      +    a +      +      +      +      + 
    0.       144.539m +      +      +      +    a +      +      +      +      + 
    0.       144.539m +      +      +      +    a +      +      +      +      + 
    0.       144.539m +      +      +      +    a +      +      +      +      + 
    0.       144.539m-+------+------+------+----a-+------+------+------+------+-
    0.       144.539m +      +      +      +    a +      +      +      +      + 
    0.       144.539m +      +      +      +    a +      +      +      +      + 
    0.       144.539m +      +      +      +    a +      +      +      +      + 
    0.       144.539m +      +      +      +    a +      +      +      +      + 
    0.       144.539m +      +      +      +    a +      +      +      +      + 
    0.       144.539m +      +      +      +    a +      +      +      +      + 
    0.       144.539m +      +      +      +    a +      +      +      +      + 
    0.       144.539m +      +      +      +    a +      +      +      +      + 
    0.       144.539m +      +      +      +    a +      +      +      +      + 
    0.       144.539m-+------+------+------+----a-+------+------+------+------+-
    0.       144.539m +      +      +      +    a +      +      +      +      + 
    0.       144.539m +      +      +      +    a +      +      +      +      + 
    0.       144.539m +      +      +      +    a +      +      +      +      + 
    0.       144.539m +      +      +      +    a +      +      +      +      + 
    0.       144.539m +      +      +      +    a +      +      +      +      + 
    0.       144.539m +      +      +      +    a +      +      +      +      + 
    0.       144.539m +      +      +      +    a +      +      +      +      + 
    0.       144.539m +      +      +      +    a +      +      +      +      + 
    0.       144.539m +      +      +      +    a +      +      +      +      + 
    0.       144.539m-+------+------+------+----a-+------+------+------+------+-
    0.       144.539m +      +      +      +    a +      +      +      +      + 
    0.       144.539m +      +      +      +    a +      +      +      +      + 
    0.       144.539m +      +      +      +    a +      +      +      +      + 
    0.       144.539m +      +      +      +    a +      +      +      +      + 
    0.       144.539m +      +      +      +    a +      +      +      +      + 
    0.       144.539m +      +      +      +    a +      +      +      +      + 
    0.       144.539m +      +      +      +    a +      +      +      +      + 
    0.       144.539m +      +      +      +    a +      +      +      +      + 
    0.       144.539m +      +      +      +    a +      +      +      +      + 
    0.       144.539m-+------+------+------+----a-+------+------+------+------+-
    0.       144.539m +      +      +      +    a +      +      +      +      + 
    0.       144.539m +      +      +      +    a +      +      +      +      + 
    0.       144.539m +      +      +      +    a +      +      +      +      + 
    0.       144.539m +      +      +      +    a +      +      +      +      + 
    0.       144.539m +      +      +      +    a +      +      +      +      + 
    0.       144.539m +      +      +      +    a +      +      +      +      + 
    0.       144.539m +      +      +      +    a +      +      +      +      + 
    0.       144.539m +      +      +      +    a +      +      +      +      + 
    0.       144.539m +      +      +      +    a +      +      +      +      + 
    0.       144.539m-+------+------+------+----a-+------+------+------+------+-
    0.       144.539m +      +      +      +    a +      +      +      +      + 
    0.       144.539m +      +      +      +    a +      +      +      +      + 
    0.       144.539m +      +      +      +    a +      +      +      +      + 
    0.       144.539m +      +      +      +    a +      +      +      +      + 
    0.       144.539m +      +      +      +    a +      +      +      +      + 
    0.       144.539m +      +      +      +    a +      +      +      +      + 
    0.       144.539m +      +      +      +    a +      +      +      +      + 
    0.       144.539m +      +      +      +    a +      +      +      +      + 
    0.       144.539m +      +      +      +    a +      +      +      +      + 
    0.       144.539m-+------+------+------+----a-+------+------+------+------+-
    0.       144.539m +      +      +      +    a +      +      +      +      + 
    0.       144.539m +      +      +      +    a +      +      +      +      + 
    0.       144.539m +      +      +      +    a +      +      +      +      + 
    0.       144.539m +      +      +      +    a +      +      +      +      + 
    0.       144.539m +      +      +      +    a +      +      +      +      + 
    0.       144.539m +      +      +      +    a +      +      +      +      + 
    0.       144.539m +      +      +      +    a +      +      +      +      + 
    0.       144.539m +      +      +      +    a +      +      +      +      + 
    0.       144.539m +      +      +      +    a +      +      +      +      + 
    0.       144.539m-+------+------+------+----a-+------+------+------+------+-
    0.       144.539m +      +      +      +    a +      +      +      +      + 
    0.       144.539m +      +      +      +    a +      +      +      +      + 
    0.       144.539m +      +      +      +    a +      +      +      +      + 
    0.       144.539m +      +      +      +    a +      +      +      +      + 
    0.       144.539m +      +      +      +    a +      +      +      +      + 
    0.       144.539m +      +      +      +    a +      +      +      +      + 
    0.       144.539m +      +      +      +    a +      +      +      +      + 
    0.       144.539m +      +      +      +    a +      +      +      +      + 
    0.       144.539m +      +      +      +    a +      +      +      +      + 
    0.       144.539m-+------+------+------+----a-+------+------+------+------+-
    0.       144.539m +      +      +      +    a +      +      +      +      + 
    0.       144.539m +      +      +      +    a +      +      +      +      + 
    0.       144.539m +      +      +      +    a +      +      +      +      + 
    0.       144.539m +      +      +      +    a +      +      +      +      + 
    0.       144.539m +      +      +      +    a +      +      +      +      + 
    0.       144.539m +      +      +      +    a +      +      +      +      + 
    0.       144.539m +      +      +      +    a +      +      +      +      + 
    0.       144.539m +      +      +      +    a +      +      +      +      + 
    0.       144.539m +      +      +      +    a +      +      +      +      + 
    0.       144.539m-+------+------+------+----a-+------+------+------+------+-
    0.       144.539m +      +      +      +    a +      +      +      +      + 
    0.       144.539m +      +      +      +    a +      +      +      +      + 
    0.       144.539m +      +      +      +    a +      +      +      +      + 
    0.       144.539m +      +      +      +    a +      +      +      +      + 
    0.       144.539m +      +      +      +    a +      +      +      +      + 
    0.       144.539m +      +      +      +    a +      +      +      +      + 
    0.       144.539m +      +      +      +    a +      +      +      +      + 
    0.       144.539m +      +      +      +    a +      +      +      +      + 
    0.       144.539m +      +      +      +    a +      +      +      +      + 
    0.       144.539m-+------+------+------+----a-+------+------+------+------+-
    0.       144.539m +      +      +      +    a +      +      +      +      + 
    0.       144.539m +      +      +      +    a +      +      +      +      + 
    0.       144.539m +      +      +      +    a +      +      +      +      + 
    0.       144.539m +      +      +      +    a +      +      +      +      + 
    0.       144.539m +      +      +      +    a +      +      +      +      + 
    0.       144.539m +      +      +      +    a +      +      +      +      + 
    0.       144.539m +      +      +      +    a +      +      +      +      + 
    0.       144.539m +      +      +      +    a +      +      +      +      + 
    0.       144.539m +      +      +      +    a +      +      +      +      + 
    0.       144.539m-+------+------+------+----a-+------+------+------+------+-
    0.       144.539m +      +      +      +    a +      +      +      +      + 
    0.       144.539m +      +      +      +    a +      +      +      +      + 
    0.       144.539m +      +      +      +    a +      +      +      +      + 
    0.       144.539m +      +      +      +    a +      +      +      +      + 
    0.       144.539m +      +      +      +    a +      +      +      +      + 
    0.       144.539m +      +      +      +    a +      +      +      +      + 
    0.       144.539m +      +      +      +    a +      +      +      +      + 
    0.       144.539m +      +      +      +    a +      +      +      +      + 
    0.       144.539m +      +      +      +    a +      +      +      +      + 
    0.       144.539m-+------+------+------+----a-+------+------+------+------+-
    0.       144.539m +      +      +      +    a +      +      +      +      + 
    0.       144.539m +      +      +      +    a +      +      +      +      + 
    0.       144.539m +      +      +      +    a +      +      +      +      + 
    0.       144.539m +      +      +      +    a +      +      +      +      + 
    0.       144.539m +      +      +      +    a +      +      +      +      + 
    0.       144.539m +      +      +      +    a +      +      +      +      + 
    0.       144.539m +      +      +      +    a +      +      +      +      + 
    0.       144.539m +      +      +      +    a +      +      +      +      + 
    0.       144.539m +      +      +      +    a +      +      +      +      + 
    0.       144.539m-+------+------+------+----a-+------+------+------+------+-
    0.       144.539m +      +      +      +    a +      +      +      +      + 
    0.       144.539m +      +      +      +    a +      +      +      +      + 
    0.       144.539m +      +      +      +    a +      +      +      +      + 
    0.       144.539m +      +      +      +    a +      +      +      +      + 
    0.       144.539m +      +      +      +    a +      +      +      +      + 
    0.       144.539m +      +      +      +    a +      +      +      +      + 
    0.       144.539m +      +      +      +    a +      +      +      +      + 
    0.       144.539m +      +      +      +    a +      +      +      +      + 
    0.       144.539m +      +      +      +    a +      +      +      +      + 
    0.       144.539m-+------+------+------+----a-+------+------+------+------+-
    0.       144.539m +      +      +      +    a +      +      +      +      + 
    0.       144.539m +      +      +      +    a +      +      +      +      + 
    0.       144.539m +      +      +      +    a +      +      +      +      + 
    0.       144.539m +      +      +      +    a +      +      +      +      + 
    0.       144.539m +      +      +      +    a +      +      +      +      + 
    0.       144.539m +      +      +      +    a +      +      +      +      + 
    0.       144.539m +      +      +      +    a +      +      +      +      + 
    0.       144.539m +      +      +      +    a +      +      +      +      + 
    0.       144.539m +      +      +      +    a +      +      +      +      + 
    0.       144.539m-+------+------+------+----a-+------+------+------+------+-
    0.       144.539m +      +      +      +    a +      +      +      +      + 
    0.       144.539m +      +      +      +    a +      +      +      +      + 
    0.       144.539m +      +      +      +    a +      +      +      +      + 
    0.       144.539m +      +      +      +    a +      +      +      +      + 
    0.       144.539m +      +      +      +    a +      +      +      +      + 
    0.       144.539m +      +      +      +    a +      +      +      +      + 
    0.       144.539m +      +      +      +    a +      +      +      +      + 
    0.       144.539m +      +      +      +    a +      +      +      +      + 
    0.       144.539m +      +      +      +    a +      +      +      +      + 
    0.       144.539m-+------+------+------+----a-+------+------+------+------+-
    0.       144.539m +      +      +      +    a +      +      +      +      + 
    0.       144.539m +      +      +      +    a +      +      +      +      + 
    0.       144.539m +      +      +      +    a +      +      +      +      + 
    0.       144.539m +      +      +      +    a +      +      +      +      + 
    0.       144.539m +      +      +      +    a +      +      +      +      + 
    0.       144.539m +      +      +      +    a +      +      +      +      + 
    0.       144.539m +      +      +      +    a +      +      +      +      + 
    0.       144.539m +      +      +      +    a +      +      +      +      + 
    0.       144.539m +      +      +      +    a +      +      +      +      + 
    0.       144.539m-+------+------+------+----a-+------+------+------+------+-
    0.       144.539m +      +      +      +    a +      +      +      +      + 
    0.       144.539m +      +      +      +    a +      +      +      +      + 
    0.       144.539m +      +      +      +    a +      +      +      +      + 
    0.       144.539m +      +      +      +    a +      +      +      +      + 
    0.       144.539m +      +      +      +    a +      +      +      +      + 
    0.       144.539m +      +      +      +    a +      +      +      +      + 
    0.       144.539m +      +      +      +    a +      +      +      +      + 
    0.       144.539m +      +      +      +    a +      +      +      +      + 
    0.       144.539m +      +      +      +    a +      +      +      +      + 
    0.       144.539m-+------+------+------+----a-+------+------+------+------+-
    0.       144.539m +      +      +      +    a +      +      +      +      + 
    0.       144.539m +      +      +      +    a +      +      +      +      + 
    0.       144.539m +      +      +      +    a +      +      +      +      + 
    0.       144.539m +      +      +      +    a +      +      +      +      + 
    0.       144.539m +      +      +      +    a +      +      +      +      + 
    0.       144.539m +      +      +      +    a +      +      +      +      + 
    0.       144.539m +      +      +      +    a +      +      +      +      + 
    0.       144.539m +      +      +      +    a +      +      +      +      + 
    0.       144.539m +      +      +      +    a +      +      +      +      + 
    0.       144.539m-+------+------+------+----a-+------+------+------+------+-
    0.       144.539m +      +      +      +    a +      +      +      +      + 
    0.       144.539m +      +      +      +    a +      +      +      +      + 
    0.       144.539m +      +      +      +    a +      +      +      +      + 
    0.       144.539m +      +      +      +    a +      +      +      +      + 
    0.       144.539m +      +      +      +    a +      +      +      +      + 
    0.       144.539m +      +      +      +    a +      +      +      +      + 
    0.       144.539m +      +      +      +    a +      +      +      +      + 
    0.       144.539m +      +      +      +    a +      +      +      +      + 
    0.       144.539m +      +      +      +    a +      +      +      +      + 
    0.       144.539m-+------+------+------+----a-+------+------+------+------+-
    0.       144.539m +      +      +      +    a +      +      +      +      + 
    0.       144.539m +      +      +      +    a +      +      +      +      + 
    0.       144.539m +      +      +      +    a +      +      +      +      + 
    0.       144.539m +      +      +      +    a +      +      +      +      + 
    0.       144.539m +      +      +      +    a +      +      +      +      + 
    0.       144.539m +      +      +      +    a +      +      +      +      + 
    0.       144.539m +      +      +      +    a +      +      +      +      + 
    0.       144.539m +      +      +      +    a +      +      +      +      + 
    0.       144.539m +      +      +      +    a +      +      +      +      + 
    0.       144.539m-+------+------+------+----a-+------+------+------+------+-
    0.       144.539m +      +      +      +    a +      +      +      +      + 
    0.       144.539m +      +      +      +    a +      +      +      +      + 
    0.       144.539m +      +      +      +    a +      +      +      +      + 
    0.       144.539m +      +      +      +    a +      +      +      +      + 
    0.       144.539m +      +      +      +    a +      +      +      +      + 
    0.       144.539m +      +      +      +    a +      +      +      +      + 
    0.       144.539m +      +      +      +    a +      +      +      +      + 
    0.       144.539m +      +      +      +    a +      +      +      +      + 
    0.       144.539m +      +      +      +    a +      +      +      +      + 
    0.       144.539m-+------+------+------+----a-+------+------+------+------+-
    0.       144.539m +      +      +      +    a +      +      +      +      + 
    0.       144.539m +      +      +      +    a +      +      +      +      + 
    0.       144.539m +      +      +      +    a +      +      +      +      + 
    0.       144.539m +      +      +      +    a +      +      +      +      + 
    0.       144.539m +      +      +      +    a +      +      +      +      + 
    0.       144.539m +      +      +      +    a +      +      +      +      + 
    0.       144.539m +      +      +      +    a +      +      +      +      + 
    0.       144.539m +      +      +      +    a +      +      +      +      + 
    0.       144.539m +      +      +      +    a +      +      +      +      + 
    0.       144.539m-+------+------+------+----a-+------+------+------+------+-
    0.       144.539m +      +      +      +    a +      +      +      +      + 
    0.       144.539m +      +      +      +    a +      +      +      +      + 
    0.       144.539m +      +      +      +    a +      +      +      +      + 
    0.       144.539m +      +      +      +    a +      +      +      +      + 
    0.       144.539m +      +      +      +    a +      +      +      +      + 
    0.       144.539m +      +      +      +    a +      +      +      +      + 
    0.       144.539m +      +      +      +    a +      +      +      +      + 
    0.       144.539m +      +      +      +    a +      +      +      +      + 
    0.       144.539m +      +      +      +    a +      +      +      +      + 
    0.       144.539m-+------+------+------+----a-+------+------+------+------+-
    0.       144.539m +      +      +      +    a +      +      +      +      + 
    0.       144.539m +      +      +      +    a +      +      +      +      + 
    0.       144.539m +      +      +      +    a +      +      +      +      + 
    0.       144.539m +      +      +      +    a +      +      +      +      + 
    0.       144.539m +      +      +      +    a +      +      +      +      + 
    0.       144.539m +      +      +      +    a +      +      +      +      + 
    0.       144.539m +      +      +      +    a +      +      +      +      + 
    0.       144.539m +      +      +      +    a +      +      +      +      + 
    0.       144.539m +      +      +      +    a +      +      +      +      + 
    0.       144.539m-+------+------+------+----a-+------+------+------+------+-
    0.       144.539m +      +      +      +    a +      +      +      +      + 
    0.       144.539m +      +      +      +    a +      +      +      +      + 
    0.       144.539m +      +      +      +    a +      +      +      +      + 
    0.       144.539m +      +      +      +    a +      +      +      +      + 
    0.       144.539m +      +      +      +    a +      +      +      +      + 
    0.       144.539m +      +      +      +    a +      +      +      +      + 
    0.       144.539m +      +      +      +    a +      +      +      +      + 
    0.       144.539m +      +      +      +    a +      +      +      +      + 
    0.       144.539m +      +      +      +    a +      +      +      +      + 
    0.       144.539m-+------+------+------+----a-+------+------+------+------+-
    0.       144.539m +      +      +      +    a +      +      +      +      + 
    0.       144.539m +      +      +      +    a +      +      +      +      + 
    0.       144.539m +      +      +      +    a +      +      +      +      + 
    0.       144.539m +      +      +      +    a +      +      +      +      + 
    0.       144.539m +      +      +      +    a +      +      +      +      + 
    0.       144.539m +      +      +      +    a +      +      +      +      + 
    0.       144.539m +      +      +      +    a +      +      +      +      + 
    0.       144.539m +      +      +      +    a +      +      +      +      + 
    0.       144.539m +      +      +      +    a +      +      +      +      + 
    0.       144.539m-+------+------+------+----a-+------+------+------+------+-
    0.       144.539m +      +      +      +    a +      +      +      +      + 
    0.       144.539m +      +      +      +    a +      +      +      +      + 
    0.       144.539m +      +      +      +    a +      +      +      +      + 
    0.       144.539m +      +      +      +    a +      +      +      +      + 
    0.       144.539m +      +      +      +    a +      +      +      +      + 
    0.       144.539m +      +      +      +    a +      +      +      +      + 
    0.       144.539m +      +      +      +    a +      +      +      +      + 
    0.       144.539m +      +      +      +    a +      +      +      +      + 
    0.       144.539m +      +      +      +    a +      +      +      +      + 
    0.       144.539m-+------+------+------+----a-+------+------+------+------+-
    0.       144.539m +      +      +      +    a +      +      +      +      + 
    0.       144.539m +      +      +      +    a +      +      +      +      + 
    0.       144.539m +      +      +      +    a +      +      +      +      + 
    0.       144.539m +      +      +      +    a +      +      +      +      + 
    0.       144.539m +      +      +      +    a +      +      +      +      + 
    0.       144.539m +      +      +      +    a +      +      +      +      + 
    0.       144.539m +      +      +      +    a +      +      +      +      + 
    0.       144.539m +      +      +      +    a +      +      +      +      + 
    0.       144.539m +      +      +      +    a +      +      +      +      + 
    0.       144.539m-+------+------+------+----a-+------+------+------+------+-
    0.       144.539m +      +      +      +    a +      +      +      +      + 
    0.       144.539m +      +      +      +    a +      +      +      +      + 
    0.       144.539m +      +      +      +    a +      +      +      +      + 
    0.       144.539m +      +      +      +    a +      +      +      +      + 
    0.       144.539m +      +      +      +    a +      +      +      +      + 
    0.       144.539m +      +      +      +    a +      +      +      +      + 
    0.       144.539m +      +      +      +    a +      +      +      +      + 
    0.       144.539m +      +      +      +    a +      +      +      +      + 
    0.       144.539m +      +      +      +    a +      +      +      +      + 
    0.       144.539m-+------+------+------+----a-+------+------+------+------+-
    0.       144.539m +      +      +      +    a +      +      +      +      + 
    0.       144.539m +      +      +      +    a +      +      +      +      + 
    0.       144.539m +      +      +      +    a +      +      +      +      + 
    0.       144.539m +      +      +      +    a +      +      +      +      + 
    0.       144.539m +      +      +      +    a +      +      +      +      + 
    0.       144.539m +      +      +      +    a +      +      +      +      + 
    0.       144.539m +      +      +      +    a +      +      +      +      + 
    0.       144.539m +      +      +      +    a +      +      +      +      + 
    0.       144.539m +      +      +      +    a +      +      +      +      + 
    0.       144.539m-+------+------+------+----a-+------+------+------+------+-
    0.       144.539m +      +      +      +    a +      +      +      +      + 
    0.       144.539m +      +      +      +    a +      +      +      +      + 
    0.       144.539m +      +      +      +    a +      +      +      +      + 
    0.       144.539m +      +      +      +    a +      +      +      +      + 
    0.       144.539m +      +      +      +    a +      +      +      +      + 
    0.       144.539m +      +      +      +    a +      +      +      +      + 
    0.       144.539m +      +      +      +    a +      +      +      +      + 
    0.       144.539m +      +      +      +    a +      +      +      +      + 
    0.       144.539m +      +      +      +    a +      +      +      +      + 
    0.       144.539m-+------+------+------+----a-+------+------+------+------+-
    0.       144.539m +      +      +      +    a +      +      +      +      + 
    0.       144.539m +      +      +      +    a +      +      +      +      + 
    0.       144.539m +      +      +      +    a +      +      +      +      + 
    0.       144.539m +      +      +      +    a +      +      +      +      + 
    0.       144.539m +      +      +      +    a +      +      +      +      + 
    0.       144.539m +      +      +      +    a +      +      +      +      + 
    0.       144.539m +      +      +      +    a +      +      +      +      + 
    0.       144.539m +      +      +      +    a +      +      +      +      + 
    0.       144.539m +      +      +      +    a +      +      +      +      + 
    0.       144.539m-+------+------+------+----a-+------+------+------+------+-
    0.       144.539m +      +      +      +    a +      +      +      +      + 
    0.       144.539m +      +      +      +    a +      +      +      +      + 
    0.       144.539m +      +      +      +    a +      +      +      +      + 
    0.       144.539m +      +      +      +    a +      +      +      +      + 
    0.       144.539m +      +      +      +    a +      +      +      +      + 
    0.       144.539m +      +      +      +    a +      +      +      +      + 
    0.       144.539m +      +      +      +    a +      +      +      +      + 
    0.       144.539m +      +      +      +    a +      +      +      +      + 
    0.       144.539m +      +      +      +    a +      +      +      +      + 
    0.       144.539m-+------+------+------+----a-+------+------+------+------+-
    0.       144.539m +      +      +      +    a +      +      +      +      + 
    0.       144.539m +      +      +      +    a +      +      +      +      + 
    0.       144.539m +      +      +      +    a +      +      +      +      + 
    0.       144.539m +      +      +      +    a +      +      +      +      + 
    0.       144.539m +      +      +      +    a +      +      +      +      + 
    0.       144.539m +      +      +      +    a +      +      +      +      + 
    0.       144.539m +      +      +      +    a +      +      +      +      + 
    0.       144.539m +      +      +      +    a +      +      +      +      + 
[...]
    0.        14.454  +      +      +      +    a +      +      +      +      + 
    0.        14.454  +      +      +      +    a +      +      +      +      + 
    0.        14.454  +      +      +      +    a +      +      +      +      + 
    0.        14.454  +      +      +      +    a +      +      +      +      + 
    0.        14.454  +      +      +      +    a +      +      +      +      + 
    0.        14.454  +      +      +      +    a +      +      +      +      + 
    0.        14.454  +      +      +      +    a +      +      +      +      + 
    0.        14.454  +      +      +      +    a +      +      +      +      + 
    0.        14.454 -+------+------+------+----a-+------+------+------+------+-
    0.        14.454  +      +      +      +    a +      +      +      +      + 
    0.        14.454  +      +      +      +    a +      +      +      +      + 
    0.        14.454  +      +      +      +    a +      +      +      +      + 
    0.        14.454  +      +      +      +    a +      +      +      +      + 
    0.        14.454  +      +      +      +    a +      +      +      +      + 
    0.        14.454  +      +      +      +    a +      +      +      +      + 
    0.        14.454  +      +      +      +    a +      +      +      +      + 
    0.        14.454  +      +      +      +    a +      +      +      +      + 
    0.        14.454  +      +      +      +    a +      +      +      +      + 
    0.        14.454 -+------+------+------+----a-+------+------+------+------+-
    0.        14.454  +      +      +      +    a +      +      +      +      + 
    0.        14.454  +      +      +      +    a +      +      +      +      + 
    0.        14.454  +      +      +      +    a +      +      +      +      + 
    0.        14.454  +      +      +      +    a +      +      +      +      + 
    0.        14.454  +      +      +      +    a +      +      +      +      + 
    0.        14.454  +      +      +      +    a +      +      +      +      + 
    0.        14.454  +      +      +      +    a +      +      +      +      + 
    0.        14.454  +      +      +      +    a +      +      +      +      + 
    0.        14.454  +      +      +      +    a +      +      +      +      + 
    0.        14.454 -+------+------+------+----a-+------+------+------+------+-
    0.        14.454  +      +      +      +    a +      +      +      +      + 
    0.        14.454  +      +      +      +    a +      +      +      +      + 
    0.        14.454  +      +      +      +    a +      +      +      +      + 
    0.        14.454  +      +      +      +    a +      +      +      +      + 
    0.        14.454  +      +      +      +    a +      +      +      +      + 
    0.        14.454  +      +      +      +    a +      +      +      +      + 
    0.        14.454  +      +      +      +    a +      +      +      +      + 
    0.        14.454  +      +      +      +    a +      +      +      +      + 
    0.        14.454  +      +      +      +    a +      +      +      +      + 
    0.        14.454 -+------+------+------+----a-+------+------+------+------+-
    0.        14.454  +      +      +      +    a +      +      +      +      + 
    0.        14.454  +      +      +      +    a +      +      +      +      + 
    0.        14.454  +      +      +      +    a +      +      +      +      + 
    0.        14.454  +      +      +      +    a +      +      +      +      + 
    0.        14.454  +      +      +      +    a +      +      +      +      + 
    0.        14.454  +      +      +      +    a +      +      +      +      + 
    0.        14.454  +      +      +      +    a +      +      +      +      + 
    0.        14.454  +      +      +      +    a +      +      +      +      + 
    0.        14.454  +      +      +      +    a +      +      +      +      + 
    0.        14.454 -+------+------+------+----a-+------+------+------+------+-
    0.        14.454  +      +      +      +    a +      +      +      +      + 
    0.        14.454  +      +      +      +    a +      +      +      +      + 
    0.        14.454  +      +      +      +    a +      +      +      +      + 
    0.        14.454  +      +      +      +    a +      +      +      +      + 
    0.        14.454  +      +      +      +    a +      +      +      +      + 
    0.        14.454  +      +      +      +    a +      +      +      +      + 
    0.        14.454  +      +      +      +    a +      +      +      +      + 
    0.        14.454  +      +      +      +    a +      +      +      +      + 
    0.        14.454  +      +      +      +    a +      +      +      +      + 
    0.        14.454 -+------+------+------+----a-+------+------+------+------+-
    0.        14.454  +      +      +      +    a +      +      +      +      + 
    0.        14.454  +      +      +      +    a +      +      +      +      + 
    0.        14.454  +      +      +      +    a +      +      +      +      + 
    0.        14.454  +      +      +      +    a +      +      +      +      + 
    0.        14.454  +      +      +      +    a +      +      +      +      + 
    0.        14.454  +      +      +      +    a +      +      +      +      + 
    0.        14.454  +      +      +      +    a +      +      +      +      + 
    0.        14.454  +      +      +      +    a +      +      +      +      + 
    0.        14.454  +      +      +      +    a +      +      +      +      + 
    0.        14.454 -+------+------+------+----a-+------+------+------+------+-
    0.        14.454  +      +      +      +    a +      +      +      +      + 
    0.        14.454  +      +      +      +    a +      +      +      +      + 
    0.        14.454  +      +      +      +    a +      +      +      +      + 
    0.        14.454  +      +      +      +    a +      +      +      +      + 
    0.        14.454  +      +      +      +    a +      +      +      +      + 
    0.        14.454  +      +      +      +    a +      +      +      +      + 
    0.        14.454  +      +      +      +    a +      +      +      +      + 
    0.        14.454  +      +      +      +    a +      +      +      +      + 
    0.        14.454  +      +      +      +    a +      +      +      +      + 
    0.        14.454 -+------+------+------+----a-+------+------+------+------+-
    0.        14.454  +      +      +      +    a +      +      +      +      + 
    0.        14.454  +      +      +      +    a +      +      +      +      + 
    0.        14.454  +      +      +      +    a +      +      +      +      + 
    0.        14.454  +      +      +      +    a +      +      +      +      + 
    0.        14.454  +      +      +      +    a +      +      +      +      + 
    0.        14.454  +      +      +      +    a +      +      +      +      + 
    0.        14.454  +      +      +      +    a +      +      +      +      + 
    0.        14.454  +      +      +      +    a +      +      +      +      + 
    0.        14.454  +      +      +      +    a +      +      +      +      + 
    0.        14.454 -+------+------+------+----a-+------+------+------+------+-
    0.        14.454  +      +      +      +    a +      +      +      +      + 
    0.        14.454  +      +      +      +    a +      +      +      +      + 
    0.        14.454  +      +      +      +    a +      +      +      +      + 
    0.        14.454  +      +      +      +    a +      +      +      +      + 
    0.        14.454  +      +      +      +    a +      +      +      +      + 
    0.        14.454  +      +      +      +    a +      +      +      +      + 
    0.        14.454  +      +      +      +    a +      +      +      +      + 
    0.        14.454  +      +      +      +    a +      +      +      +      + 
    0.        14.454  +      +      +      +    a +      +      +      +      + 
    0.        14.454 -+------+------+------+----a-+------+------+------+------+-
    0.        14.454  +      +      +      +    a +      +      +      +      + 
    0.        14.454  +      +      +      +    a +      +      +      +      + 
    0.        14.454  +      +      +      +    a +      +      +      +      + 
    0.        14.454  +      +      +      +    a +      +      +      +      + 
    0.        14.454  +      +      +      +    a +      +      +      +      + 
    0.        14.454  +      +      +      +    a +      +      +      +      + 
    0.        14.454  +      +      +      +    a +      +      +      +      + 
    0.        14.454  +      +      +      +    a +      +      +      +      + 
    0.        14.454  +      +      +      +    a +      +      +      +      + 
    0.        14.454 -+------+------+------+----a-+------+------+------+------+-
    0.        14.454  +      +      +      +    a +      +      +      +      + 
    0.        14.454  +      +      +      +    a +      +      +      +      + 
    0.        14.454  +      +      +      +    a +      +      +      +      + 
    0.        14.454  +      +      +      +    a +      +      +      +      + 
    0.        14.454  +      +      +      +    a +      +      +      +      + 
    0.        14.454  +      +      +      +    a +      +      +      +      + 
    0.        14.454  +      +      +      +    a +      +      +      +      + 
    0.        14.454  +      +      +      +    a +      +      +      +      + 
    0.        14.454  +      +      +      +    a +      +      +      +      + 
    0.        14.454 -+------+------+------+----a-+------+------+------+------+-
    0.        14.454  +      +      +      +    a +      +      +      +      + 
    0.        14.454  +      +      +      +    a +      +      +      +      + 
    0.        14.454  +      +      +      +    a +      +      +      +      + 
    0.        14.454  +      +      +      +    a +      +      +      +      + 
    0.        14.454  +      +      +      +    a +      +      +      +      + 
    0.        14.454  +      +      +      +    a +      +      +      +      + 
    0.        14.454  +      +      +      +    a +      +      +      +      + 
    0.        14.454  +      +      +      +    a +      +      +      +      + 
    0.        14.454  +      +      +      +    a +      +      +      +      + 
    0.        14.454 -+------+------+------+----a-+------+------+------+------+-
    0.        14.454  +      +      +      +    a +      +      +      +      + 
    0.        14.454  +      +      +      +    a +      +      +      +      + 
    0.        14.454  +      +      +      +    a +      +      +      +      + 
    0.        14.454  +      +      +      +    a +      +      +      +      + 
    0.        14.454  +      +      +      +    a +      +      +      +      + 
    0.        14.454  +      +      +      +    a +      +      +      +      + 
    0.        14.454  +      +      +      +    a +      +      +      +      + 
    0.        14.454  +      +      +      +    a +      +      +      +      + 
    0.        14.454  +      +      +      +    a +      +      +      +      + 
    0.        14.454 -+------+------+------+----a-+------+------+------+------+-
    0.        14.454  +      +      +      +    a +      +      +      +      + 
    0.        14.454  +      +      +      +    a +      +      +      +      + 
    0.        14.454  +      +      +      +    a +      +      +      +      + 
    0.        14.454  +      +      +      +    a +      +      +      +      + 
    0.        14.454  +      +      +      +    a +      +      +      +      + 
    0.        14.454  +      +      +      +    a +      +      +      +      + 
    0.        14.454  +      +      +      +    a +      +      +      +      + 
    0.        14.454  +      +      +      +    a +      +      +      +      + 
    0.        14.454  +      +      +      +    a +      +      +      +      + 
    0.        14.454 -+------+------+------+----a-+------+------+------+------+-
    0.        14.454  +      +      +      +    a +      +      +      +      + 
    0.        14.454  +      +      +      +    a +      +      +      +      + 
    0.        14.454  +      +      +      +    a +      +      +      +      + 
    0.        14.454  +      +      +      +    a +      +      +      +      + 
    0.        14.454  +      +      +      +    a +      +      +      +      + 
    0.        14.454  +      +      +      +    a +      +      +      +      + 
    0.        14.454  +      +      +      +    a +      +      +      +      + 
    0.        14.454  +      +      +      +    a +      +      +      +      + 
    0.        14.454  +      +      +      +    a +      +      +      +      + 
    0.        14.454 -+------+------+------+----a-+------+------+------+------+-
    0.        14.454  +      +      +      +    a +      +      +      +      + 
    0.        14.454  +      +      +      +    a +      +      +      +      + 
    0.        14.454  +      +      +      +    a +      +      +      +      + 
    0.        14.454  +      +      +      +    a +      +      +      +      + 
    0.        14.454  +      +      +      +    a +      +      +      +      + 
    0.        14.454  +      +      +      +    a +      +      +      +      + 
    0.        14.454  +      +      +      +    a +      +      +      +      + 
    0.        14.454  +      +      +      +    a +      +      +      +      + 
    0.        14.454  +      +      +      +    a +      +      +      +      + 
    0.        14.454 -+------+------+------+----a-+------+------+------+------+-
    0.        14.454  +      +      +      +    a +      +      +      +      + 
    0.        14.454  +      +      +      +    a +      +      +      +      + 
    0.        14.454  +      +      +      +    a +      +      +      +      + 
    0.        14.454  +      +      +      +    a +      +      +      +      + 
    0.        14.454  +      +      +      +    a +      +      +      +      + 
    0.        14.454  +      +      +      +    a +      +      +      +      + 
    0.        14.454  +      +      +      +    a +      +      +      +      + 
    0.        14.454  +      +      +      +    a +      +      +      +      + 
    0.        14.454  +      +      +      +    a +      +      +      +      + 
    0.        14.454 -+------+------+------+----a-+------+------+------+------+-
    0.        14.454  +      +      +      +    a +      +      +      +      + 
    0.        14.454  +      +      +      +    a +      +      +      +      + 
    0.        14.454  +      +      +      +    a +      +      +      +      + 
    0.        14.454  +      +      +      +    a +      +      +      +      + 
    0.        14.454  +      +      +      +    a +      +      +      +      + 
    0.        14.454  +      +      +      +    a +      +      +      +      + 
    0.        14.454  +      +      +      +    a +      +      +      +      + 
    0.        14.454  +      +      +      +    a +      +      +      +      + 
    0.        14.454  +      +      +      +    a +      +      +      +      + 
    0.        14.454 -+------+------+------+----a-+------+------+------+------+-
    0.        14.454  +      +      +      +    a +      +      +      +      + 
    0.        14.454  +      +      +      +    a +      +      +      +      + 
    0.        14.454  +      +      +      +    a +      +      +      +      + 
    0.        14.454  +      +      +      +    a +      +      +      +      + 
    0.        14.454  +      +      +      +    a +      +      +      +      + 
    0.        14.454  +      +      +      +    a +      +      +      +      + 
    0.        14.454  +      +      +      +    a +      +      +      +      + 
    0.        14.454  +      +      +      +    a +      +      +      +      + 
    0.        14.454  +      +      +      +    a +      +      +      +      + 
    0.        14.454 -+------+------+------+----a-+------+------+------+------+-
    0.        14.454  +      +      +      +    a +      +      +      +      + 
    0.        14.454  +      +      +      +    a +      +      +      +      + 
    0.        14.454  +      +      +      +    a +      +      +      +      + 
    0.        14.454  +      +      +      +    a +      +      +      +      + 
    0.        14.454  +      +      +      +    a +      +      +      +      + 
    0.        14.454  +      +      +      +    a +      +      +      +      + 
    0.        14.454  +      +      +      +    a +      +      +      +      + 
    0.        14.454  +      +      +      +    a +      +      +      +      + 
    0.        14.454  +      +      +      +    a +      +      +      +      + 
    0.        14.454 -+------+------+------+----a-+------+------+------+------+-
    0.        14.454  +      +      +      +    a +      +      +      +      + 
    0.        14.454  +      +      +      +    a +      +      +      +      + 
    0.        14.454  +      +      +      +    a +      +      +      +      + 
    0.        14.454  +      +      +      +    a +      +      +      +      + 
    0.        14.454  +      +      +      +    a +      +      +      +      + 
    0.        14.454  +      +      +      +    a +      +      +      +      + 
    0.        14.454  +      +      +      +    a +      +      +      +      + 
    0.        14.454  +      +      +      +    a +      +      +      +      + 
    0.        14.454  +      +      +      +    a +      +      +      +      + 
    0.        14.454 -+------+------+------+----a-+------+------+------+------+-
    0.        14.454  +      +      +      +    a +      +      +      +      + 
    0.        14.454  +      +      +      +    a +      +      +      +      + 
    0.        14.454  +      +      +      +    a +      +      +      +      + 
    0.        14.454  +      +      +      +    a +      +      +      +      + 
    0.        14.454  +      +      +      +    a +      +      +      +      + 
                      +             +             +             +             + 

b


          ***** job concluded
1****** HSPICE -- H-2013.03-SP2 64-BIT (Aug 26 2013) win64 ******               
 ******  
 normal crossbar with normal transistors and big resistance range of memristors

  ******  job statistics summary tnom=  25.000 temp=  25.000 *****

  ******  HSPICE Threads Information  ******

  Command Line Threads Count :     1
  Available CPU Count        :     8
  Actual Threads Count       :     1


  ******  Circuit Statistics  ******
  # nodes       =      46 # elements   =      19
  # resistors   =       2 # capacitors =       0 # inductors   =       0
  # mutual_inds =       0 # vccs       =       0 # vcvs        =       0
  # cccs        =       0 # ccvs       =       1 # volt_srcs   =       8
  # curr_srcs   =       0 # diodes     =       0 # bjts        =       0
  # jfets       =       0 # mosfets    =       4 # U elements  =       0
  # T elements  =       0 # W elements =       0 # B elements  =       0
  # S elements  =       0 # P elements =       0 # va device   =       4
  # vector_srcs =       0 # N elements =       0


  ******  Runtime Statistics (seconds)  ******

  analysis           time    # points   tot. iter  conv.iter
  op point           0.02           1          62
  transient         54.98        2006     2321494     1019441 rev=      5570
  readin             0.08
  errchk             0.04
  setup              0.01
  output             0.02


           peak memory used         42.35 megabytes
           total cpu time           55.16 seconds
           total elapsed time       55.19 seconds
           job started at     12:06:54 07/10/2013
           job ended   at     12:07:49 07/10/2013


  lic: Release hspice token(s) 
 lic: total license checkout elapse time:        0.02(s)
