 ****** HSPICE -- H-2013.03-SP2 64-BIT (Aug 26 2013) win64 ******               
  Copyright (C) 2013 Synopsys, Inc. All Rights Reserved.                        
  Unpublished-rights reserved under US copyright laws.
  This program is protected by law and is subject to the
  terms and conditions of the license agreement from Synopsys.
  Use of this program is your acceptance to be bound by the
  license agreement. HSPICE is the trademark of Synopsys, Inc.
  Input File: normal_crossbar_normal_transistor_small_resistance_range.sp       
  Command line options: -i normal_crossbar_normal_transistor_small_resistance_range.sp -o normal_crossbar_normal_transistor_small_resistance_range.lis
  lic:  
  lic: FLEXlm: v10.9.8 
  lic: USER:   Alireza              HOSTNAME: DESKTOP-O03KROI 
  lic: HOSTID: "f8e4e3ae3854 005056c00001 005056c00008 444553544f53 00fff93d48a0
  f8e4e3ae3850 f8e4e3a
  lic: Using FLEXlm license file: 
  lic: C:\hspice_lic\synopsys.dat 
  lic: Checkout 1 hspice 
  lic: License/Maintenance for hspice will expire on 31-dec-2019/2019.12 
  lic: NODE LOCKED license on hostid "f8e4e3ae3854 005056c00001 005056c00008 444
 553544f53 00fff93d48a
  lic:   
 Init: read install configuration file: C:\synopsys\Hspice_H-2013.03-SP2\meta.cfg
 **info** *pvaI* Module (RRAM): 2 unexpanded port, 2 init, 16 behav, 5 contrib, 63/10 expr(s)

 **info** *pvaI*        Has DIS (AE BS ST), 0 afCount, 0 MT

 **info** *pvaI*        0 const-G and 0 const-C, No switchBranch, 0 bypassOpt

 **info** *pvaI*        generated 4 flow node(s) during compilation.

 **info** *pvaI* #### Total 453 line-size(s), 63/10 expr(s), 5 contr(s), 2 init(s), 16 behav(s), 2 port(s)

 Loading pVA library normal_crossbar_normal_transistor_small_resistance_range.pvadir\pvaRTL_win64.dll...
1****** HSPICE -- H-2013.03-SP2 64-BIT (Aug 26 2013) win64 ******               
 ******  
 normal crossbar with normal transistors and small resistance range of memristors

  ******  circuit name directory
 circuit number to circuit name directory
   number circuitname                     definition         multiplier
        0 main circuit
        1 x1.                             RRAM(va)           1.00 
        2 x2.                             RRAM(va)           1.00 
        3 x3.                             RRAM(va)           1.00 
        4 x4.                             RRAM(va)           1.00 
  **info** (normal_crossbar_normal_transistor_small_resistance_range.sp:48) DC voltage reset to initial transient source value              in source        0:v_bias              new dc=  0.0000D+00
 ** warning** associated with encrypted blocks were suppressed

 **info** *pvaI* Creating VA module (RRAM) for instance X4 with gmd reduction

 **info** *pvaI* Creating VA module (RRAM) for instance X3 with gmd reduction

 **info** *pvaI* Creating VA module (RRAM) for instance X2 with gmd reduction

 **info** *pvaI* Creating VA module (RRAM) for instance X1 with gmd reduction

  

 **warning** the following singular supplies were terminated to 1 meg resistor 
   supply       node1            node2
  v_expected              0:expected         defined in subckt 0                     0:0                defined in subckt 0               
  hv                      0:vo               defined in subckt 0                     0:0                defined in subckt 0               
      
 *****************************************************************
 ******  option summary
 ******
 runlvl  = 3         bypass  = 2         
  Opening plot unit= 79
 file=normal_crossbar_normal_transistor_small_resistance_range.pa0

1****** HSPICE -- H-2013.03-SP2 64-BIT (Aug 26 2013) win64 ******               
 ******  
 normal crossbar with normal transistors and small resistance range of memristors

  ******  operating point information tnom=  25.000 temp=  25.000 *****
 ***** operating point status is voltage   simulation time is     0.     
    node    =voltage      node    =voltage      node    =voltage

 +0:bias    =   0.      0:bl1     = 333.3333m 0:bl2     =   1.0000 
 +0:bl3     =   0.      0:bl4     =   1.0000  0:expected=   1.0000 
 +0:nb1     =  58.7476m 0:nb2     = 153.7256m 0:nb3     = 981.8030n
 +0:nb4     =  39.9514m 0:sl1     =   0.      0:vo      =   1.3589 
 +0:wl      =   1.0000 

 ******  
 normal crossbar with normal transistors and small resistance range of memristors

  ******  transient analysis tnom=  25.000 temp=  25.000 *****

   *** data name = vector  1st sweep ***

 avgpower=  13.1799u  from=   0.          to=  10.0300u
 avg_error=-275.9400m  from=   0.          to=  10.0300u
 avg_expected_output=   1.0145   from=   0.          to=  10.0300u
 t0000_1111= 254.7845f  targ=  10.0100u   trig=  10.0100u
 t1111_0000= 519.4266f  targ=  10.0200u   trig=  10.0200u

a


   *** data name = vector    1st sweep ***


      time       v(expected,vo)
 (a       )    -600.0000m    -400.0000m    -200.0000m       0.         200.0000m
                      +             +             +             +             + 
    0.      -358.890m-+------+------+--a---+------+------+------+------+------+-
    0.      -358.890m +      +      +  a   +      +      +      +      +      + 
    0.      -358.890m +      +      +  a   +      +      +      +      +      + 
    0.      -358.890m +      +      +  a   +      +      +      +      +      + 
    0.      -358.890m +      +      +  a   +      +      +      +      +      + 
    0.      -358.890m +      +      +  a   +      +      +      +      +      + 
    0.      -358.890m +      +      +  a   +      +      +      +      +      + 
    0.      -358.890m +      +      +  a   +      +      +      +      +      + 
    0.      -358.890m +      +      +  a   +      +      +      +      +      + 
    0.      -358.890m +      +      +  a   +      +      +      +      +      + 
    0.      -358.890m-+------+------+--a---+------+------+------+------+------+-
    0.      -358.890m +      +      +  a   +      +      +      +      +      + 
    0.      -358.890m +      +      +  a   +      +      +      +      +      + 
    0.      -358.890m +      +      +  a   +      +      +      +      +      + 
    0.      -358.890m +      +      +  a   +      +      +      +      +      + 
    0.      -358.890m +      +      +  a   +      +      +      +      +      + 
    0.      -358.890m +      +      +  a   +      +      +      +      +      + 
    0.      -358.890m +      +      +  a   +      +      +      +      +      + 
    0.      -358.890m +      +      +  a   +      +      +      +      +      + 
    0.      -358.890m +      +      +  a   +      +      +      +      +      + 
    0.      -358.890m-+------+------+--a---+------+------+------+------+------+-
    0.      -358.890m +      +      +  a   +      +      +      +      +      + 
    0.      -358.890m +      +      +  a   +      +      +      +      +      + 
    0.      -358.890m +      +      +  a   +      +      +      +      +      + 
    0.      -358.890m +      +      +  a   +      +      +      +      +      + 
    0.      -358.890m +      +      +  a   +      +      +      +      +      + 
    0.      -358.890m +      +      +  a   +      +      +      +      +      + 
    0.      -358.890m +      +      +  a   +      +      +      +      +      + 
    0.      -358.890m +      +      +  a   +      +      +      +      +      + 
    0.      -358.890m +      +      +  a   +      +      +      +      +      + 
    0.      -358.890m-+------+------+--a---+------+------+------+------+------+-
    0.      -358.890m +      +      +  a   +      +      +      +      +      + 
    0.      -358.890m +      +      +  a   +      +      +      +      +      + 
    0.      -358.890m +      +      +  a   +      +      +      +      +      + 
    0.      -358.890m +      +      +  a   +      +      +      +      +      + 
    0.      -358.890m +      +      +  a   +      +      +      +      +      + 
    0.      -358.890m +      +      +  a   +      +      +      +      +      + 
    0.      -358.890m +      +      +  a   +      +      +      +      +      + 
    0.      -358.890m +      +      +  a   +      +      +      +      +      + 
    0.      -358.890m +      +      +  a   +      +      +      +      +      + 
    0.      -358.890m-+------+------+--a---+------+------+------+------+------+-
    0.      -358.890m +      +      +  a   +      +      +      +      +      + 
    0.      -358.890m +      +      +  a   +      +      +      +      +      + 
    0.      -358.890m +      +      +  a   +      +      +      +      +      + 
    0.      -358.890m +      +      +  a   +      +      +      +      +      + 
    0.      -358.890m +      +      +  a   +      +      +      +      +      + 
    0.      -358.890m +      +      +  a   +      +      +      +      +      + 
    0.      -358.890m +      +      +  a   +      +      +      +      +      + 
    0.      -358.890m +      +      +  a   +      +      +      +      +      + 
    0.      -358.890m +      +      +  a   +      +      +      +      +      + 
    0.      -358.890m-+------+------+--a---+------+------+------+------+------+-
    0.      -358.890m +      +      +  a   +      +      +      +      +      + 
    0.      -358.890m +      +      +  a   +      +      +      +      +      + 
    0.      -358.890m +      +      +  a   +      +      +      +      +      + 
    0.      -358.890m +      +      +  a   +      +      +      +      +      + 
    0.      -358.890m +      +      +  a   +      +      +      +      +      + 
    0.      -358.890m +      +      +  a   +      +      +      +      +      + 
    0.      -358.890m +      +      +  a   +      +      +      +      +      + 
    0.      -358.890m +      +      +  a   +      +      +      +      +      + 
    0.      -358.890m +      +      +  a   +      +      +      +      +      + 
    0.      -358.890m-+------+------+--a---+------+------+------+------+------+-
    0.      -358.890m +      +      +  a   +      +      +      +      +      + 
    0.      -358.890m +      +      +  a   +      +      +      +      +      + 
    0.      -358.890m +      +      +  a   +      +      +      +      +      + 
    0.      -358.890m +      +      +  a   +      +      +      +      +      + 
    0.      -358.890m +      +      +  a   +      +      +      +      +      + 
    0.      -358.890m +      +      +  a   +      +      +      +      +      + 
    0.      -358.890m +      +      +  a   +      +      +      +      +      + 
    0.      -358.890m +      +      +  a   +      +      +      +      +      + 
    0.      -358.890m +      +      +  a   +      +      +      +      +      + 
    0.      -358.890m-+------+------+--a---+------+------+------+------+------+-
    0.      -358.890m +      +      +  a   +      +      +      +      +      + 
    0.      -358.890m +      +      +  a   +      +      +      +      +      + 
    0.      -358.890m +      +      +  a   +      +      +      +      +      + 
    0.      -358.890m +      +      +  a   +      +      +      +      +      + 
    0.      -358.890m +      +      +  a   +      +      +      +      +      + 
    0.      -358.890m +      +      +  a   +      +      +      +      +      + 
    0.      -358.890m +      +      +  a   +      +      +      +      +      + 
    0.      -358.890m +      +      +  a   +      +      +      +      +      + 
    0.      -358.890m +      +      +  a   +      +      +      +      +      + 
    0.      -358.890m-+------+------+--a---+------+------+------+------+------+-
    0.      -358.890m +      +      +  a   +      +      +      +      +      + 
    0.      -358.890m +      +      +  a   +      +      +      +      +      + 
    0.      -358.890m +      +      +  a   +      +      +      +      +      + 
    0.      -358.890m +      +      +  a   +      +      +      +      +      + 
    0.      -358.890m +      +      +  a   +      +      +      +      +      + 
    0.      -358.890m +      +      +  a   +      +      +      +      +      + 
    0.      -358.890m +      +      +  a   +      +      +      +      +      + 
    0.      -358.890m +      +      +  a   +      +      +      +      +      + 
    0.      -358.890m +      +      +  a   +      +      +      +      +      + 
    0.      -358.890m-+------+------+--a---+------+------+------+------+------+-
    0.      -358.890m +      +      +  a   +      +      +      +      +      + 
    0.      -358.890m +      +      +  a   +      +      +      +      +      + 
    0.      -358.890m +      +      +  a   +      +      +      +      +      + 
    0.      -358.890m +      +      +  a   +      +      +      +      +      + 
    0.      -358.890m +      +      +  a   +      +      +      +      +      + 
    0.      -358.890m +      +      +  a   +      +      +      +      +      + 
    0.      -358.890m +      +      +  a   +      +      +      +      +      + 
    0.      -358.890m +      +      +  a   +      +      +      +      +      + 
    0.      -358.890m +      +      +  a   +      +      +      +      +      + 
    0.      -358.890m-+------+------+--a---+------+------+------+------+------+-
    0.      -358.890m +      +      +  a   +      +      +      +      +      + 
    0.      -358.890m +      +      +  a   +      +      +      +      +      + 
    0.      -358.890m +      +      +  a   +      +      +      +      +      + 
    0.      -358.890m +      +      +  a   +      +      +      +      +      + 
    0.      -358.890m +      +      +  a   +      +      +      +      +      + 
    0.      -358.890m +      +      +  a   +      +      +      +      +      + 
    0.      -358.890m +      +      +  a   +      +      +      +      +      + 
    0.      -358.890m +      +      +  a   +      +      +      +      +      + 
    0.      -358.890m +      +      +  a   +      +      +      +      +      + 
    0.      -358.890m-+------+------+--a---+------+------+------+------+------+-
    0.      -358.890m +      +      +  a   +      +      +      +      +      + 
    0.      -358.890m +      +      +  a   +      +      +      +      +      + 
    0.      -358.890m +      +      +  a   +      +      +      +      +      + 
    0.      -358.890m +      +      +  a   +      +      +      +      +      + 
    0.      -358.890m +      +      +  a   +      +      +      +      +      + 
    0.      -358.890m +      +      +  a   +      +      +      +      +      + 
    0.      -358.890m +      +      +  a   +      +      +      +      +      + 
    0.      -358.890m +      +      +  a   +      +      +      +      +      + 
    0.      -358.890m +      +      +  a   +      +      +      +      +      + 
    0.      -358.890m-+------+------+--a---+------+------+------+------+------+-
    0.      -358.890m +      +      +  a   +      +      +      +      +      + 
    0.      -358.890m +      +      +  a   +      +      +      +      +      + 
    0.      -358.890m +      +      +  a   +      +      +      +      +      + 
    0.      -358.890m +      +      +  a   +      +      +      +      +      + 
    0.      -358.890m +      +      +  a   +      +      +      +      +      + 
    0.      -358.890m +      +      +  a   +      +      +      +      +      + 
    0.      -358.890m +      +      +  a   +      +      +      +      +      + 
    0.      -358.890m +      +      +  a   +      +      +      +      +      + 
    0.      -358.890m +      +      +  a   +      +      +      +      +      + 
    0.      -358.890m-+------+------+--a---+------+------+------+------+------+-
    0.      -358.890m +      +      +  a   +      +      +      +      +      + 
    0.      -358.890m +      +      +  a   +      +      +      +      +      + 
    0.      -358.890m +      +      +  a   +      +      +      +      +      + 
    0.      -358.890m +      +      +  a   +      +      +      +      +      + 
    0.      -358.890m +      +      +  a   +      +      +      +      +      + 
    0.      -358.890m +      +      +  a   +      +      +      +      +      + 
    0.      -358.890m +      +      +  a   +      +      +      +      +      + 
    0.      -358.890m +      +      +  a   +      +      +      +      +      + 
    0.      -358.890m +      +      +  a   +      +      +      +      +      + 
    0.      -358.890m-+------+------+--a---+------+------+------+------+------+-
    0.      -358.890m +      +      +  a   +      +      +      +      +      + 
    0.      -358.890m +      +      +  a   +      +      +      +      +      + 
    0.      -358.890m +      +      +  a   +      +      +      +      +      + 
    0.      -358.890m +      +      +  a   +      +      +      +      +      + 
    0.      -358.890m +      +      +  a   +      +      +      +      +      + 
    0.      -358.890m +      +      +  a   +      +      +      +      +      + 
    0.      -358.890m +      +      +  a   +      +      +      +      +      + 
    0.      -358.890m +      +      +  a   +      +      +      +      +      + 
    0.      -358.890m +      +      +  a   +      +      +      +      +      + 
    0.      -358.890m-+------+------+--a---+------+------+------+------+------+-
    0.      -358.890m +      +      +  a   +      +      +      +      +      + 
    0.      -358.890m +      +      +  a   +      +      +      +      +      + 
    0.      -358.890m +      +      +  a   +      +      +      +      +      + 
    0.      -358.890m +      +      +  a   +      +      +      +      +      + 
    0.      -358.890m +      +      +  a   +      +      +      +      +      + 
    0.      -358.890m +      +      +  a   +      +      +      +      +      + 
    0.      -358.890m +      +      +  a   +      +      +      +      +      + 
    0.      -358.890m +      +      +  a   +      +      +      +      +      + 
    0.      -358.890m +      +      +  a   +      +      +      +      +      + 
    0.      -358.890m-+------+------+--a---+------+------+------+------+------+-
    0.      -358.890m +      +      +  a   +      +      +      +      +      + 
    0.      -358.890m +      +      +  a   +      +      +      +      +      + 
    0.      -358.890m +      +      +  a   +      +      +      +      +      + 
    0.      -358.890m +      +      +  a   +      +      +      +      +      + 
    0.      -358.890m +      +      +  a   +      +      +      +      +      + 
    0.      -358.890m +      +      +  a   +      +      +      +      +      + 
    0.      -358.890m +      +      +  a   +      +      +      +      +      + 
    0.      -358.890m +      +      +  a   +      +      +      +      +      + 
    0.      -358.890m +      +      +  a   +      +      +      +      +      + 
    0.      -358.890m-+------+------+--a---+------+------+------+------+------+-
    0.      -358.890m +      +      +  a   +      +      +      +      +      + 
    0.      -358.890m +      +      +  a   +      +      +      +      +      + 
    0.      -358.890m +      +      +  a   +      +      +      +      +      + 
    0.      -358.890m +      +      +  a   +      +      +      +      +      + 
    0.      -358.890m +      +      +  a   +      +      +      +      +      + 
    0.      -358.890m +      +      +  a   +      +      +      +      +      + 
    0.      -358.890m +      +      +  a   +      +      +      +      +      + 
    0.      -358.890m +      +      +  a   +      +      +      +      +      + 
    0.      -358.890m +      +      +  a   +      +      +      +      +      + 
    0.      -358.890m-+------+------+--a---+------+------+------+------+------+-
    0.      -358.890m +      +      +  a   +      +      +      +      +      + 
    0.      -358.890m +      +      +  a   +      +      +      +      +      + 
    0.      -358.890m +      +      +  a   +      +      +      +      +      + 
    0.      -358.890m +      +      +  a   +      +      +      +      +      + 
    0.      -358.890m +      +      +  a   +      +      +      +      +      + 
    0.      -358.890m +      +      +  a   +      +      +      +      +      + 
    0.      -358.890m +      +      +  a   +      +      +      +      +      + 
    0.      -358.890m +      +      +  a   +      +      +      +      +      + 
    0.      -358.890m +      +      +  a   +      +      +      +      +      + 
    0.      -358.890m-+------+------+--a---+------+------+------+------+------+-
    0.      -358.890m +      +      +  a   +      +      +      +      +      + 
    0.      -358.890m +      +      +  a   +      +      +      +      +      + 
    0.      -358.890m +      +      +  a   +      +      +      +      +      + 
    0.      -358.890m +      +      +  a   +      +      +      +      +      + 
    0.      -358.890m +      +      +  a   +      +      +      +      +      + 
    0.      -358.890m +      +      +  a   +      +      +      +      +      + 
    0.      -358.890m +      +      +  a   +      +      +      +      +      + 
    0.      -358.890m +      +      +  a   +      +      +      +      +      + 
    0.      -358.890m +      +      +  a   +      +      +      +      +      + 
    0.      -358.890m-+------+------+--a---+------+------+------+------+------+-
    0.      -358.890m +      +      +  a   +      +      +      +      +      + 
    0.      -358.890m +      +      +  a   +      +      +      +      +      + 
    0.      -358.890m +      +      +  a   +      +      +      +      +      + 
    0.      -358.890m +      +      +  a   +      +      +      +      +      + 
    0.      -358.890m +      +      +  a   +      +      +      +      +      + 
    0.      -358.890m +      +      +  a   +      +      +      +      +      + 
    0.      -358.890m +      +      +  a   +      +      +      +      +      + 
    0.      -358.890m +      +      +  a   +      +      +      +      +      + 
    0.      -358.890m +      +      +  a   +      +      +      +      +      + 
    0.      -358.890m-+------+------+--a---+------+------+------+------+------+-
    0.      -358.890m +      +      +  a   +      +      +      +      +      + 
    0.      -358.890m +      +      +  a   +      +      +      +      +      + 
    0.      -358.890m +      +      +  a   +      +      +      +      +      + 
    0.      -358.890m +      +      +  a   +      +      +      +      +      + 
    0.      -358.890m +      +      +  a   +      +      +      +      +      + 
    0.      -358.890m +      +      +  a   +      +      +      +      +      + 
    0.      -358.890m +      +      +  a   +      +      +      +      +      + 
    0.      -358.890m +      +      +  a   +      +      +      +      +      + 
    0.      -358.890m +      +      +  a   +      +      +      +      +      + 
    0.      -358.890m-+------+------+--a---+------+------+------+------+------+-
    0.      -358.890m +      +      +  a   +      +      +      +      +      + 
    0.      -358.890m +      +      +  a   +      +      +      +      +      + 
    0.      -358.890m +      +      +  a   +      +      +      +      +      + 
    0.      -358.890m +      +      +  a   +      +      +      +      +      + 
    0.      -358.890m +      +      +  a   +      +      +      +      +      + 
    0.      -358.890m +      +      +  a   +      +      +      +      +      + 
    0.      -358.890m +      +      +  a   +      +      +      +      +      + 
    0.      -358.890m +      +      +  a   +      +      +      +      +      + 
    0.      -358.890m +      +      +  a   +      +      +      +      +      + 
    0.      -358.890m-+------+------+--a---+------+------+------+------+------+-
    0.      -358.890m +      +      +  a   +      +      +      +      +      + 
    0.      -358.890m +      +      +  a   +      +      +      +      +      + 
    0.      -358.890m +      +      +  a   +      +      +      +      +      + 
    0.      -358.890m +      +      +  a   +      +      +      +      +      + 
    0.      -358.890m +      +      +  a   +      +      +      +      +      + 
    0.      -358.890m +      +      +  a   +      +      +      +      +      + 
    0.      -358.890m +      +      +  a   +      +      +      +      +      + 
    0.      -358.890m +      +      +  a   +      +      +      +      +      + 
    0.      -358.890m +      +      +  a   +      +      +      +      +      + 
    0.      -358.890m-+------+------+--a---+------+------+------+------+------+-
    0.      -358.890m +      +      +  a   +      +      +      +      +      + 
    0.      -358.890m +      +      +  a   +      +      +      +      +      + 
    0.      -358.890m +      +      +  a   +      +      +      +      +      + 
    0.      -358.890m +      +      +  a   +      +      +      +      +      + 
    0.      -358.890m +      +      +  a   +      +      +      +      +      + 
    0.      -358.890m +      +      +  a   +      +      +      +      +      + 
    0.      -358.890m +      +      +  a   +      +      +      +      +      + 
    0.      -358.890m +      +      +  a   +      +      +      +      +      + 
    0.      -358.890m +      +      +  a   +      +      +      +      +      + 
    0.      -358.890m-+------+------+--a---+------+------+------+------+------+-
    0.      -358.890m +      +      +  a   +      +      +      +      +      + 
    0.      -358.890m +      +      +  a   +      +      +      +      +      + 
    0.      -358.890m +      +      +  a   +      +      +      +      +      + 
    0.      -358.890m +      +      +  a   +      +      +      +      +      + 
    0.      -358.890m +      +      +  a   +      +      +      +      +      + 
    0.      -358.890m +      +      +  a   +      +      +      +      +      + 
    0.      -358.890m +      +      +  a   +      +      +      +      +      + 
    0.      -358.890m +      +      +  a   +      +      +      +      +      + 
    0.      -358.890m +      +      +  a   +      +      +      +      +      + 
    0.      -358.890m-+------+------+--a---+------+------+------+------+------+-
    0.      -358.890m +      +      +  a   +      +      +      +      +      + 
    0.      -358.890m +      +      +  a   +      +      +      +      +      + 
    0.      -358.890m +      +      +  a   +      +      +      +      +      + 
    0.      -358.890m +      +      +  a   +      +      +      +      +      + 
    0.      -358.890m +      +      +  a   +      +      +      +      +      + 
    0.      -358.890m +      +      +  a   +      +      +      +      +      + 
    0.      -358.890m +      +      +  a   +      +      +      +      +      + 
    0.      -358.890m +      +      +  a   +      +      +      +      +      + 
    0.      -358.890m +      +      +  a   +      +      +      +      +      + 
    0.      -358.890m-+------+------+--a---+------+------+------+------+------+-
    0.      -358.890m +      +      +  a   +      +      +      +      +      + 
    0.      -358.890m +      +      +  a   +      +      +      +      +      + 
    0.      -358.890m +      +      +  a   +      +      +      +      +      + 
    0.      -358.890m +      +      +  a   +      +      +      +      +      + 
    0.      -358.890m +      +      +  a   +      +      +      +      +      + 
    0.      -358.890m +      +      +  a   +      +      +      +      +      + 
    0.      -358.890m +      +      +  a   +      +      +      +      +      + 
    0.      -358.890m +      +      +  a   +      +      +      +      +      + 
    0.      -358.890m +      +      +  a   +      +      +      +      +      + 
    0.      -358.890m-+------+------+--a---+------+------+------+------+------+-
    0.      -358.890m +      +      +  a   +      +      +      +      +      + 
    0.      -358.890m +      +      +  a   +      +      +      +      +      + 
    0.      -358.890m +      +      +  a   +      +      +      +      +      + 
    0.      -358.890m +      +      +  a   +      +      +      +      +      + 
    0.      -358.890m +      +      +  a   +      +      +      +      +      + 
    0.      -358.890m +      +      +  a   +      +      +      +      +      + 
    0.      -358.890m +      +      +  a   +      +      +      +      +      + 
    0.      -358.890m +      +      +  a   +      +      +      +      +      + 
    0.      -358.890m +      +      +  a   +      +      +      +      +      + 
    0.      -358.890m-+------+------+--a---+------+------+------+------+------+-
    0.      -358.890m +      +      +  a   +      +      +      +      +      + 
    0.      -358.890m +      +      +  a   +      +      +      +      +      + 
    0.      -358.890m +      +      +  a   +      +      +      +      +      + 
    0.      -358.890m +      +      +  a   +      +      +      +      +      + 
    0.      -358.890m +      +      +  a   +      +      +      +      +      + 
    0.      -358.890m +      +      +  a   +      +      +      +      +      + 
    0.      -358.890m +      +      +  a   +      +      +      +      +      + 
    0.      -358.890m +      +      +  a   +      +      +      +      +      + 
    0.      -358.890m +      +      +  a   +      +      +      +      +      + 
    0.      -358.890m-+------+------+--a---+------+------+------+------+------+-
    0.      -358.890m +      +      +  a   +      +      +      +      +      + 
    0.      -358.890m +      +      +  a   +      +      +      +      +      + 
    0.      -358.890m +      +      +  a   +      +      +      +      +      + 
    0.      -358.890m +      +      +  a   +      +      +      +      +      + 
    0.      -358.890m +      +      +  a   +      +      +      +      +      + 
    0.      -358.890m +      +      +  a   +      +      +      +      +      + 
    0.      -358.890m +      +      +  a   +      +      +      +      +      + 
    0.      -358.890m +      +      +  a   +      +      +      +      +      + 
    0.      -358.890m +      +      +  a   +      +      +      +      +      + 
    0.      -358.890m-+------+------+--a---+------+------+------+------+------+-
    0.      -358.890m +      +      +  a   +      +      +      +      +      + 
    0.      -358.890m +      +      +  a   +      +      +      +      +      + 
    0.      -358.890m +      +      +  a   +      +      +      +      +      + 
    0.      -358.890m +      +      +  a   +      +      +      +      +      + 
    0.      -358.890m +      +      +  a   +      +      +      +      +      + 
    0.      -358.890m +      +      +  a   +      +      +      +      +      + 
    0.      -358.890m +      +      +  a   +      +      +      +      +      + 
    0.      -358.890m +      +      +  a   +      +      +      +      +      + 
    0.      -358.890m +      +      +  a   +      +      +      +      +      + 
    0.      -358.890m-+------+------+--a---+------+------+------+------+------+-
    0.      -358.890m +      +      +  a   +      +      +      +      +      + 
    0.      -358.890m +      +      +  a   +      +      +      +      +      + 
    0.      -358.890m +      +      +  a   +      +      +      +      +      + 
    0.      -358.890m +      +      +  a   +      +      +      +      +      + 
    0.      -358.890m +      +      +  a   +      +      +      +      +      + 
    0.      -358.890m +      +      +  a   +      +      +      +      +      + 
    0.      -358.890m +      +      +  a   +      +      +      +      +      + 
    0.      -358.890m +      +      +  a   +      +      +      +      +      + 
    0.      -358.890m +      +      +  a   +      +      +      +      +      + 
    0.      -358.890m-+------+------+--a---+------+------+------+------+------+-
    0.      -358.890m +      +      +  a   +      +      +      +      +      + 
    0.      -358.890m +      +      +  a   +      +      +      +      +      + 
    0.      -358.890m +      +      +  a   +      +      +      +      +      + 
    0.      -358.890m +      +      +  a   +      +      +      +      +      + 
    0.      -358.890m +      +      +  a   +      +      +      +      +      + 
    0.      -358.890m +      +      +  a   +      +      +      +      +      + 
    0.      -358.890m +      +      +  a   +      +      +      +      +      + 
    0.      -358.890m +      +      +  a   +      +      +      +      +      + 
    0.      -358.890m +      +      +  a   +      +      +      +      +      + 
    0.      -358.890m-+------+------+--a---+------+------+------+------+------+-
    0.      -358.890m +      +      +  a   +      +      +      +      +      + 
    0.      -358.890m +      +      +  a   +      +      +      +      +      + 
    0.      -358.890m +      +      +  a   +      +      +      +      +      + 
    0.      -358.890m +      +      +  a   +      +      +      +      +      + 
    0.      -358.890m +      +      +  a   +      +      +      +      +      + 
    0.      -358.890m +      +      +  a   +      +      +      +      +      + 
    0.      -358.890m +      +      +  a   +      +      +      +      +      + 
    0.      -358.890m +      +      +  a   +      +      +      +      +      + 
    0.      -358.890m +      +      +  a   +      +      +      +      +      + 
    0.      -358.890m-+------+------+--a---+------+------+------+------+------+-
    0.      -358.890m +      +      +  a   +      +      +      +      +      + 
    0.      -358.890m +      +      +  a   +      +      +      +      +      + 
    0.      -358.890m +      +      +  a   +      +      +      +      +      + 
    0.      -358.890m +      +      +  a   +      +      +      +      +      + 
    0.      -358.890m +      +      +  a   +      +      +      +      +      + 
    0.      -358.890m +      +      +  a   +      +      +      +      +      + 
    0.      -358.890m +      +      +  a   +      +      +      +      +      + 
    0.      -358.890m +      +      +  a   +      +      +      +      +      + 
    0.      -358.890m +      +      +  a   +      +      +      +      +      + 
    0.      -358.890m-+------+------+--a---+------+------+------+------+------+-
    0.      -358.890m +      +      +  a   +      +      +      +      +      + 
    0.      -358.890m +      +      +  a   +      +      +      +      +      + 
    0.      -358.890m +      +      +  a   +      +      +      +      +      + 
    0.      -358.890m +      +      +  a   +      +      +      +      +      + 
    0.      -358.890m +      +      +  a   +      +      +      +      +      + 
    0.      -358.890m +      +      +  a   +      +      +      +      +      + 
    0.      -358.890m +      +      +  a   +      +      +      +      +      + 
    0.      -358.890m +      +      +  a   +      +      +      +      +      + 
    0.      -358.890m +      +      +  a   +      +      +      +      +      + 
    0.      -358.890m-+------+------+--a---+------+------+------+------+------+-
    0.      -358.890m +      +      +  a   +      +      +      +      +      + 
    0.      -358.890m +      +      +  a   +      +      +      +      +      + 
    0.      -358.890m +      +      +  a   +      +      +      +      +      + 
    0.      -358.890m +      +      +  a   +      +      +      +      +      + 
    0.      -358.890m +      +      +  a   +      +      +      +      +      + 
    0.      -358.890m +      +      +  a   +      +      +      +      +      + 
    0.      -358.890m +      +      +  a   +      +      +      +      +      + 
    0.      -358.890m +      +      +  a   +      +      +      +      +      + 
    0.      -358.890m +      +      +  a   +      +      +      +      +      + 
    0.      -358.890m-+------+------+--a---+------+------+------+------+------+-
    0.      -358.890m +      +      +  a   +      +      +      +      +      + 
    0.      -358.890m +      +      +  a   +      +      +      +      +      + 
    0.      -358.890m +      +      +  a   +      +      +      +      +      + 
    0.      -358.890m +      +      +  a   +      +      +      +      +      + 
    0.      -358.890m +      +      +  a   +      +      +      +      +      + 
    0.      -358.890m +      +      +  a   +      +      +      +      +      + 
    0.      -358.890m +      +      +  a   +      +      +      +      +      + 
    0.      -358.890m +      +      +  a   +      +      +      +      +      + 
    0.      -358.890m +      +      +  a   +      +      +      +      +      + 
    0.      -358.890m-+------+------+--a---+------+------+------+------+------+-
    0.      -358.890m +      +      +  a   +      +      +      +      +      + 
    0.      -358.890m +      +      +  a   +      +      +      +      +      + 
    0.      -358.890m +      +      +  a   +      +      +      +      +      + 
    0.      -358.890m +      +      +  a   +      +      +      +      +      + 
    0.      -358.890m +      +      +  a   +      +      +      +      +      + 
    0.      -358.890m +      +      +  a   +      +      +      +      +      + 
    0.      -358.890m +      +      +  a   +      +      +      +      +      + 
    0.      -358.890m +      +      +  a   +      +      +      +      +      + 
    0.      -358.890m +      +      +  a   +      +      +      +      +      + 
    0.      -358.890m-+------+------+--a---+------+------+------+------+------+-
    0.      -358.890m +      +      +  a   +      +      +      +      +      + 
    0.      -358.890m +      +      +  a   +      +      +      +      +      + 
    0.      -358.890m +      +      +  a   +      +      +      +      +      + 
    0.      -358.890m +      +      +  a   +      +      +      +      +      + 
    0.      -358.890m +      +      +  a   +      +      +      +      +      + 
    0.      -358.890m +      +      +  a   +      +      +      +      +      + 
    0.      -358.890m +      +      +  a   +      +      +      +      +      + 
    0.      -358.890m +      +      +  a   +      +      +      +      +      + 
    0.      -358.890m +      +      +  a   +      +      +      +      +      + 
    0.      -358.890m-+------+------+--a---+------+------+------+------+------+-
    0.      -358.890m +      +      +  a   +      +      +      +      +      + 
    0.      -358.890m +      +      +  a   +      +      +      +      +      + 
    0.      -358.890m +      +      +  a   +      +      +      +      +      + 
    0.      -358.890m +      +      +  a   +      +      +      +      +      + 
    0.      -358.890m +      +      +  a   +      +      +      +      +      + 
    0.      -358.890m +      +      +  a   +      +      +      +      +      + 
    0.      -358.890m +      +      +  a   +      +      +      +      +      + 
    0.      -358.890m +      +      +  a   +      +      +      +      +      + 
    0.      -358.890m +      +      +  a   +      +      +      +      +      + 
    0.      -358.890m-+------+------+--a---+------+------+------+------+------+-
    0.      -358.890m +      +      +  a   +      +      +      +      +      + 
    0.      -358.890m +      +      +  a   +      +      +      +      +      + 
    0.      -358.890m +      +      +  a   +      +      +      +      +      + 
    0.      -358.890m +      +      +  a   +      +      +      +      +      + 
    0.      -358.890m +      +      +  a   +      +      +      +      +      + 
    0.      -358.890m +      +      +  a   +      +      +      +      +      + 
    0.      -358.890m +      +      +  a   +      +      +      +      +      + 
    0.      -358.890m +      +      +  a   +      +      +      +      +      + 
    0.      -358.890m +      +      +  a   +      +      +      +      +      + 
    0.      -358.890m-+------+------+--a---+------+------+------+------+------+-
    0.      -358.890m +      +      +  a   +      +      +      +      +      + 
    0.      -358.890m +      +      +  a   +      +      +      +      +      + 
    0.      -358.890m +      +      +  a   +      +      +      +      +      + 
    0.      -358.890m +      +      +  a   +      +      +      +      +      + 
    0.      -358.890m +      +      +  a   +      +      +      +      +      + 
    0.      -358.890m +      +      +  a   +      +      +      +      +      + 
    0.      -358.890m +      +      +  a   +      +      +      +      +      + 
    0.      -358.890m +      +      +  a   +      +      +      +      +      + 
    0.      -358.890m +      +      +  a   +      +      +      +      +      + 
    0.      -358.890m-+------+------+--a---+------+------+------+------+------+-
    0.      -358.890m +      +      +  a   +      +      +      +      +      + 
    0.      -358.890m +      +      +  a   +      +      +      +      +      + 
    0.      -358.890m +      +      +  a   +      +      +      +      +      + 
    0.      -358.890m +      +      +  a   +      +      +      +      +      + 
    0.      -358.890m +      +      +  a   +      +      +      +      +      + 
    0.      -358.890m +      +      +  a   +      +      +      +      +      + 
    0.      -358.890m +      +      +  a   +      +      +      +      +      + 
    0.      -358.890m +      +      +  a   +      +      +      +      +      + 
    0.      -358.890m +      +      +  a   +      +      +      +      +      + 
    0.      -358.890m-+------+------+--a---+------+------+------+------+------+-
    0.      -358.890m +      +      +  a   +      +      +      +      +      + 
    0.      -358.890m +      +      +  a   +      +      +      +      +      + 
    0.      -358.890m +      +      +  a   +      +      +      +      +      + 
    0.      -358.890m +      +      +  a   +      +      +      +      +      + 
    0.      -358.890m +      +      +  a   +      +      +      +      +      + 
    0.      -358.890m +      +      +  a   +      +      +      +      +      + 
    0.      -358.890m +      +      +  a   +      +      +      +      +      + 
    0.      -358.890m +      +      +  a   +      +      +      +      +      + 
    0.      -358.890m +      +      +  a   +      +      +      +      +      + 
    0.      -358.890m-+------+------+--a---+------+------+------+------+------+-
    0.      -358.890m +      +      +  a   +      +      +      +      +      + 
    0.      -358.890m +      +      +  a   +      +      +      +      +      + 
    0.      -358.890m +      +      +  a   +      +      +      +      +      + 
    0.      -358.890m +      +      +  a   +      +      +      +      +      + 
    0.      -358.890m +      +      +  a   +      +      +      +      +      + 
    0.      -358.890m +      +      +  a   +      +      +      +      +      + 
    0.      -358.890m +      +      +  a   +      +      +      +      +      + 
    0.      -358.890m +      +      +  a   +      +      +      +      +      + 
    0.      -358.890m +      +      +  a   +      +      +      +      +      + 
    0.      -358.890m-+------+------+--a---+------+------+------+------+------+-
    0.      -358.890m +      +      +  a   +      +      +      +      +      + 
    0.      -358.890m +      +      +  a   +      +      +      +      +      + 
    0.      -358.890m +      +      +  a   +      +      +      +      +      + 
    0.      -358.890m +      +      +  a   +      +      +      +      +      + 
    0.      -358.890m +      +      +  a   +      +      +      +      +      + 
    0.      -358.890m +      +      +  a   +      +      +      +      +      + 
    0.      -358.890m +      +      +  a   +      +      +      +      +      + 
    0.      -358.890m +      +      +  a   +      +      +      +      +      + 
    0.      -358.890m +      +      +  a   +      +      +      +      +      + 
    0.      -358.890m-+------+------+--a---+------+------+------+------+------+-
    0.      -358.890m +      +      +  a   +      +      +      +      +      + 
    0.      -358.890m +      +      +  a   +      +      +      +      +      + 
    0.      -358.890m +      +      +  a   +      +      +      +      +      + 
    0.      -358.890m +      +      +  a   +      +      +      +      +      + 
    0.      -358.890m +      +      +  a   +      +      +      +      +      + 
    0.      -358.890m +      +      +  a   +      +      +      +      +      + 
    0.      -358.890m +      +      +  a   +      +      +      +      +      + 
    0.      -358.890m +      +      +  a   +      +      +      +      +      + 
    0.      -358.890m +      +      +  a   +      +      +      +      +      + 
    0.      -358.890m-+------+------+--a---+------+------+------+------+------+-
    0.      -358.890m +      +      +  a   +      +      +      +      +      + 
    0.      -358.890m +      +      +  a   +      +      +      +      +      + 
    0.      -358.890m +      +      +  a   +      +      +      +      +      + 
    0.      -358.890m +      +      +  a   +      +      +      +      +      + 
    0.      -358.890m +      +      +  a   +      +      +      +      +      + 
    0.      -358.890m +      +      +  a   +      +      +      +      +      + 
    0.      -358.890m +      +      +  a   +      +      +      +      +      + 
    0.      -358.890m +      +      +  a   +      +      +      +      +      + 
    0.      -358.890m +      +      +  a   +      +      +      +      +      + 
    0.      -358.890m-+------+------+--a---+------+------+------+------+------+-
    0.      -358.890m +      +      +  a   +      +      +      +      +      + 
    0.      -358.890m +      +      +  a   +      +      +      +      +      + 
    0.      -358.890m +      +      +  a   +      +      +      +      +      + 
    0.      -358.890m +      +      +  a   +      +      +      +      +      + 
    0.      -358.890m +      +      +  a   +      +      +      +      +      + 
    0.      -358.890m +      +      +  a   +      +      +      +      +      + 
    0.      -358.890m +      +      +  a   +      +      +      +      +      + 
    0.      -358.890m +      +      +  a   +      +      +      +      +      + 
    0.      -358.890m +      +      +  a   +      +      +      +      +      + 
    0.      -358.890m-+------+------+--a---+------+------+------+------+------+-
    0.      -358.890m +      +      +  a   +      +      +      +      +      + 
    0.      -358.890m +      +      +  a   +      +      +      +      +      + 
    0.      -358.890m +      +      +  a   +      +      +      +      +      + 
    0.      -358.890m +      +      +  a   +      +      +      +      +      + 
    0.      -358.890m +      +      +  a   +      +      +      +      +      + 
    0.      -358.890m +      +      +  a   +      +      +      +      +      + 
    0.      -358.890m +      +      +  a   +      +      +      +      +      + 
    0.      -358.890m +      +      +  a   +      +      +      +      +      + 
    0.      -358.890m +      +      +  a   +      +      +      +      +      + 
    0.      -358.890m-+------+------+--a---+------+------+------+------+------+-
    0.      -358.890m +      +      +  a   +      +      +      +      +      + 
    0.      -358.890m +      +      +  a   +      +      +      +      +      + 
    0.      -358.890m +      +      +  a   +      +      +      +      +      + 
    0.      -358.890m +      +      +  a   +      +      +      +      +      + 
    0.      -358.890m +      +      +  a   +      +      +      +      +      + 
    0.      -358.890m +      +      +  a   +      +      +      +      +      + 
    0.      -358.890m +      +      +  a   +      +      +      +      +      + 
    0.      -358.890m +      +      +  a   +      +      +      +      +      + 
    0.      -358.890m +      +      +  a   +      +      +      +      +      + 
    0.      -358.890m-+------+------+--a---+------+------+------+------+------+-
    0.      -358.890m +      +      +  a   +      +      +      +      +      + 
    0.      -358.890m +      +      +  a   +      +      +      +      +      + 
    0.      -358.890m +      +      +  a   +      +      +      +      +      + 
    0.      -358.890m +      +      +  a   +      +      +      +      +      + 
    0.      -358.890m +      +      +  a   +      +      +      +      +      + 
    0.      -358.890m +      +      +  a   +      +      +      +      +      + 
    0.      -358.890m +      +      +  a   +      +      +      +      +      + 
    0.      -358.890m +      +      +  a   +      +      +      +      +      + 
    0.      -358.890m +      +      +  a   +      +      +      +      +      + 
    0.      -358.890m-+------+------+--a---+------+------+------+------+------+-
    0.      -358.890m +      +      +  a   +      +      +      +      +      + 
    0.      -358.890m +      +      +  a   +      +      +      +      +      + 
    0.      -358.890m +      +      +  a   +      +      +      +      +      + 
    0.      -358.890m +      +      +  a   +      +      +      +      +      + 
    0.      -358.890m +      +      +  a   +      +      +      +      +      + 
    0.      -358.890m +      +      +  a   +      +      +      +      +      + 
    0.      -358.890m +      +      +  a   +      +      +      +      +      + 
    0.      -358.890m +      +      +  a   +      +      +      +      +      + 
    0.      -358.890m +      +      +  a   +      +      +      +      +      + 
    0.      -358.890m-+------+------+--a---+------+------+------+------+------+-
    0.      -358.890m +      +      +  a   +      +      +      +      +      + 
    0.      -358.890m +      +      +  a   +      +      +      +      +      + 
    0.      -358.890m +      +      +  a   +      +      +      +      +      + 
    0.      -358.890m +      +      +  a   +      +      +      +      +      + 
    0.      -358.890m +      +      +  a   +      +      +      +      +      + 
    0.      -358.890m +      +      +  a   +      +      +      +      +      + 
    0.      -358.890m +      +      +  a   +      +      +      +      +      + 
    0.      -358.890m +      +      +  a   +      +      +      +      +      + 
    0.      -358.890m +      +      +  a   +      +      +      +      +      + 
    0.      -358.890m-+------+------+--a---+------+------+------+------+------+-
    0.      -358.890m +      +      +  a   +      +      +      +      +      + 
    0.      -358.890m +      +      +  a   +      +      +      +      +      + 
    0.      -358.890m +      +      +  a   +      +      +      +      +      + 
    0.      -358.890m +      +      +  a   +      +      +      +      +      + 
    0.      -358.890m +      +      +  a   +      +      +      +      +      + 
    0.      -358.890m +      +      +  a   +      +      +      +      +      + 
    0.      -358.890m +      +      +  a   +      +      +      +      +      + 
    0.      -358.890m +      +      +  a   +      +      +      +      +      + 
    0.      -358.890m +      +      +  a   +      +      +      +      +      + 
    0.      -358.890m-+------+------+--a---+------+------+------+------+------+-
    0.      -358.890m +      +      +  a   +      +      +      +      +      + 
    0.      -358.890m +      +      +  a   +      +      +      +      +      + 
    0.      -358.890m +      +      +  a   +      +      +      +      +      + 
    0.      -358.890m +      +      +  a   +      +      +      +      +      + 
    0.      -358.890m +      +      +  a   +      +      +      +      +      + 
    0.      -358.890m +      +      +  a   +      +      +      +      +      + 
    0.      -358.890m +      +      +  a   +      +      +      +      +      + 
    0.      -358.890m +      +      +  a   +      +      +      +      +      + 
    0.      -358.890m +      +      +  a   +      +      +      +      +      + 
    0.      -358.890m-+------+------+--a---+------+------+------+------+------+-
    0.      -358.890m +      +      +  a   +      +      +      +      +      + 
    0.      -358.890m +      +      +  a   +      +      +      +      +      + 
    0.      -358.890m +      +      +  a   +      +      +      +      +      + 
    0.      -358.890m +      +      +  a   +      +      +      +      +      + 
    0.      -358.890m +      +      +  a   +      +      +      +      +      + 
    0.      -358.890m +      +      +  a   +      +      +      +      +      + 
    0.      -358.890m +      +      +  a   +      +      +      +      +      + 
    0.      -358.890m +      +      +  a   +      +      +      +      +      + 
    0.      -358.890m +      +      +  a   +      +      +      +      +      + 
    0.      -358.890m-+------+------+--a---+------+------+------+------+------+-
    0.      -358.890m +      +      +  a   +      +      +      +      +      + 
    0.      -358.890m +      +      +  a   +      +      +      +      +      + 
    0.      -358.890m +      +      +  a   +      +      +      +      +      + 
    0.      -358.890m +      +      +  a   +      +      +      +      +      + 
    0.      -358.890m +      +      +  a   +      +      +      +      +      + 
    0.      -358.890m +      +      +  a   +      +      +      +      +      + 
    0.      -358.890m +      +      +  a   +      +      +      +      +      + 
    0.      -358.890m +      +      +  a   +      +      +      +      +      + 
    0.      -358.890m +      +      +  a   +      +      +      +      +      + 
    0.      -358.890m-+------+------+--a---+------+------+------+------+------+-
    0.      -358.890m +      +      +  a   +      +      +      +      +      + 
    0.      -358.890m +      +      +  a   +      +      +      +      +      + 
    0.      -358.890m +      +      +  a   +      +      +      +      +      + 
    0.      -358.890m +      +      +  a   +      +      +      +      +      + 
    0.      -358.890m +      +      +  a   +      +      +      +      +      + 
    0.      -358.890m +      +      +  a   +      +      +      +      +      + 
    0.      -358.890m +      +      +  a   +      +      +      +      +      + 
    0.      -358.890m +      +      +  a   +      +      +      +      +      + 
    0.      -358.890m +      +      +  a   +      +      +      +      +      + 
    0.      -358.890m-+------+------+--a---+------+------+------+------+------+-
    0.      -358.890m +      +      +  a   +      +      +      +      +      + 
    0.      -358.890m +      +      +  a   +      +      +      +      +      + 
    0.      -358.890m +      +      +  a   +      +      +      +      +      + 
    0.      -358.890m +      +      +  a   +      +      +      +      +      + 
    0.      -358.890m +      +      +  a   +      +      +      +      +      + 
    0.      -358.890m +      +      +  a   +      +      +      +      +      + 
    0.      -358.890m +      +      +  a   +      +      +      +      +      + 
    0.      -358.890m +      +      +  a   +      +      +      +      +      + 
    0.      -358.890m +      +      +  a   +      +      +      +      +      + 
    0.      -358.890m-+------+------+--a---+------+------+------+------+------+-
    0.      -358.890m +      +      +  a   +      +      +      +      +      + 
    0.      -358.890m +      +      +  a   +      +      +      +      +      + 
    0.      -358.890m +      +      +  a   +      +      +      +      +      + 
    0.      -358.890m +      +      +  a   +      +      +      +      +      + 
    0.      -358.890m +      +      +  a   +      +      +      +      +      + 
    0.      -358.890m +      +      +  a   +      +      +      +      +      + 
    0.      -358.890m +      +      +  a   +      +      +      +      +      + 
    0.      -358.890m +      +      +  a   +      +      +      +      +      + 
    0.      -358.890m +      +      +  a   +      +      +      +      +      + 
    0.      -358.890m-+------+------+--a---+------+------+------+------+------+-
    0.      -358.890m +      +      +  a   +      +      +      +      +      + 
    0.      -358.890m +      +      +  a   +      +      +      +      +      + 
    0.      -358.890m +      +      +  a   +      +      +      +      +      + 
    0.      -358.890m +      +      +  a   +      +      +      +      +      + 
    0.      -358.890m +      +      +  a   +      +      +      +      +      + 
    0.      -358.890m +      +      +  a   +      +      +      +      +      + 
    0.      -358.890m +      +      +  a   +      +      +      +      +      + 
    0.      -358.890m +      +      +  a   +      +      +      +      +      + 
    0.      -358.890m +      +      +  a   +      +      +      +      +      + 
    0.      -358.890m-+------+------+--a---+------+------+------+------+------+-
    0.      -358.890m +      +      +  a   +      +      +      +      +      + 
    0.      -358.890m +      +      +  a   +      +      +      +      +      + 
    0.      -358.890m +      +      +  a   +      +      +      +      +      + 
    0.      -358.890m +      +      +  a   +      +      +      +      +      + 
    0.      -358.890m +      +      +  a   +      +      +      +      +      + 
    0.      -358.890m +      +      +  a   +      +      +      +      +      + 
    0.      -358.890m +      +      +  a   +      +      +      +      +      + 
    0.      -358.890m +      +      +  a   +      +      +      +      +      + 
    0.      -358.890m +      +      +  a   +      +      +      +      +      + 
    0.      -358.890m-+------+------+--a---+------+------+------+------+------+-
    0.      -358.890m +      +      +  a   +      +      +      +      +      + 
    0.      -358.890m +      +      +  a   +      +      +      +      +      + 
    0.      -358.890m +      +      +  a   +      +      +      +      +      + 
    0.      -358.890m +      +      +  a   +      +      +      +      +      + 
    0.      -358.890m +      +      +  a   +      +      +      +      +      + 
    0.      -358.890m +      +      +  a   +      +      +      +      +      + 
    0.      -358.890m +      +      +  a   +      +      +      +      +      + 
    0.      -358.890m +      +      +  a   +      +      +      +      +      + 
    0.      -358.890m +      +      +  a   +      +      +      +      +      + 
    0.      -358.890m-+------+------+--a---+------+------+------+------+------+-
    0.      -358.890m +      +      +  a   +      +      +      +      +      + 
    0.      -358.890m +      +      +  a   +      +      +      +      +      + 
    0.      -358.890m +      +      +  a   +      +      +      +      +      + 
    0.      -358.890m +      +      +  a   +      +      +      +      +      + 
    0.      -358.890m +      +      +  a   +      +      +      +      +      + 
    0.      -358.890m +      +      +  a   +      +      +      +      +      + 
    0.      -358.890m +      +      +  a   +      +      +      +      +      + 
    0.      -358.890m +      +      +  a   +      +      +      +      +      + 
    0.      -358.890m +      +      +  a   +      +      +      +      +      + 
    0.      -358.890m-+------+------+--a---+------+------+------+------+------+-
    0.      -358.890m +      +      +  a   +      +      +      +      +      + 
    0.      -358.890m +      +      +  a   +      +      +      +      +      + 
    0.      -358.890m +      +      +  a   +      +      +      +      +      + 
    0.      -358.890m +      +      +  a   +      +      +      +      +      + 
    0.      -358.890m +      +      +  a   +      +      +      +      +      + 
    0.      -358.890m +      +      +  a   +      +      +      +      +      + 
    0.      -358.890m +      +      +  a   +      +      +      +      +      + 
    0.      -358.890m +      +      +  a   +      +      +      +      +      + 
    0.      -358.890m +      +      +  a   +      +      +      +      +      + 
    0.      -358.890m-+------+------+--a---+------+------+------+------+------+-
    0.      -358.890m +      +      +  a   +      +      +      +      +      + 
    0.      -358.890m +      +      +  a   +      +      +      +      +      + 
    0.      -358.890m +      +      +  a   +      +      +      +      +      + 
    0.      -358.890m +      +      +  a   +      +      +      +      +      + 
    0.      -358.890m +      +      +  a   +      +      +      +      +      + 
    0.      -358.890m +      +      +  a   +      +      +      +      +      + 
    0.      -358.890m +      +      +  a   +      +      +      +      +      + 
    0.      -358.890m +      +      +  a   +      +      +      +      +      + 
    0.      -358.890m +      +      +  a   +      +      +      +      +      + 
    0.      -358.890m-+------+------+--a---+------+------+------+------+------+-
    0.      -358.890m +      +      +  a   +      +      +      +      +      + 
    0.      -358.890m +      +      +  a   +      +      +      +      +      + 
    0.      -358.890m +      +      +  a   +      +      +      +      +      + 
    0.      -358.890m +      +      +  a   +      +      +      +      +      + 
    0.      -358.890m +      +      +  a   +      +      +      +      +      + 
    0.      -358.890m +      +      +  a   +      +      +      +      +      + 
    0.      -358.890m +      +      +  a   +      +      +      +      +      + 
    0.      -358.890m +      +      +  a   +      +      +      +      +      + 
    0.      -358.890m +      +      +  a   +      +      +      +      +      + 
    0.      -358.890m-+------+------+--a---+------+------+------+------+------+-
    0.      -358.890m +      +      +  a   +      +      +      +      +      + 
    0.      -358.890m +      +      +  a   +      +      +      +      +      + 
    0.      -358.890m +      +      +  a   +      +      +      +      +      + 
    0.      -358.890m +      +      +  a   +      +      +      +      +      + 
    0.      -358.890m +      +      +  a   +      +      +      +      +      + 
    0.      -358.890m +      +      +  a   +      +      +      +      +      + 
    0.      -358.890m +      +      +  a   +      +      +      +      +      + 
    0.      -358.890m +      +      +  a   +      +      +      +      +      + 
    0.      -358.890m +      +      +  a   +      +      +      +      +      + 
    0.      -358.890m-+------+------+--a---+------+------+------+------+------+-
    0.      -358.890m +      +      +  a   +      +      +      +      +      + 
    0.      -358.890m +      +      +  a   +      +      +      +      +      + 
    0.      -358.890m +      +      +  a   +      +      +      +      +      + 
    0.      -358.890m +      +      +  a   +      +      +      +      +      + 
    0.      -358.890m +      +      +  a   +      +      +      +      +      + 
    0.      -358.890m +      +      +  a   +      +      +      +      +      + 
    0.      -358.890m +      +      +  a   +      +      +      +      +      + 
    0.      -358.890m +      +      +  a   +      +      +      +      +      + 
    0.      -358.890m +      +      +  a   +      +      +      +      +      + 
    0.      -358.890m-+------+------+--a---+------+------+------+------+------+-
    0.      -358.890m +      +      +  a   +      +      +      +      +      + 
    0.      -358.890m +      +      +  a   +      +      +      +      +      + 
    0.      -358.890m +      +      +  a   +      +      +      +      +      + 
    0.      -358.890m +      +      +  a   +      +      +      +      +      + 
    0.      -358.890m +      +      +  a   +      +      +      +      +      + 
    0.      -358.890m +      +      +  a   +      +      +      +      +      + 
    0.      -358.890m +      +      +  a   +      +      +      +      +      + 
    0.      -358.890m +      +      +  a   +      +      +      +      +      + 
    0.      -358.890m +      +      +  a   +      +      +      +      +      + 
    0.      -358.890m-+------+------+--a---+------+------+------+------+------+-
    0.      -358.890m +      +      +  a   +      +      +      +      +      + 
    0.      -358.890m +      +      +  a   +      +      +      +      +      + 
    0.      -358.890m +      +      +  a   +      +      +      +      +      + 
    0.      -358.890m +      +      +  a   +      +      +      +      +      + 
    0.      -358.890m +      +      +  a   +      +      +      +      +      + 
    0.      -358.890m +      +      +  a   +      +      +      +      +      + 
    0.      -358.890m +      +      +  a   +      +      +      +      +      + 
    0.      -358.890m +      +      +  a   +      +      +      +      +      + 
    0.      -358.890m +      +      +  a   +      +      +      +      +      + 
    0.      -358.890m-+------+------+--a---+------+------+------+------+------+-
    0.      -358.890m +      +      +  a   +      +      +      +      +      + 
    0.      -358.890m +      +      +  a   +      +      +      +      +      + 
    0.      -358.890m +      +      +  a   +      +      +      +      +      + 
    0.      -358.890m +      +      +  a   +      +      +      +      +      + 
    0.      -358.890m +      +      +  a   +      +      +      +      +      + 
    0.      -358.890m +      +      +  a   +      +      +      +      +      + 
    0.      -358.890m +      +      +  a   +      +      +      +      +      + 
    0.      -358.890m +      +      +  a   +      +      +      +      +      + 
    0.      -358.890m +      +      +  a   +      +      +      +      +      + 
    0.      -358.890m-+------+------+--a---+------+------+------+------+------+-
    0.      -358.890m +      +      +  a   +      +      +      +      +      + 
    0.      -358.890m +      +      +  a   +      +      +      +      +      + 
    0.      -358.890m +      +      +  a   +      +      +      +      +      + 
    0.      -358.890m +      +      +  a   +      +      +      +      +      + 
    0.      -358.890m +      +      +  a   +      +      +      +      +      + 
    0.      -358.890m +      +      +  a   +      +      +      +      +      + 
    0.      -358.890m +      +      +  a   +      +      +      +      +      + 
    0.      -358.890m +      +      +  a   +      +      +      +      +      + 
    0.      -358.890m +      +      +  a   +      +      +      +      +      + 
    0.      -358.890m-+------+------+--a---+------+------+------+------+------+-
    0.      -358.890m +      +      +  a   +      +      +      +      +      + 
    0.      -358.890m +      +      +  a   +      +      +      +      +      + 
    0.      -358.890m +      +      +  a   +      +      +      +      +      + 
    0.      -358.890m +      +      +  a   +      +      +      +      +      + 
    0.      -358.890m +      +      +  a   +      +      +      +      +      + 
    0.      -358.890m +      +      +  a   +      +      +      +      +      + 
    0.      -358.890m +      +      +  a   +      +      +      +      +      + 
    0.      -358.890m +      +      +  a   +      +      +      +      +      + 
    0.      -358.890m +      +      +  a   +      +      +      +      +      + 
    0.      -358.890m-+------+------+--a---+------+------+------+------+------+-
    0.      -358.890m +      +      +  a   +      +      +      +      +      + 
    0.      -358.890m +      +      +  a   +      +      +      +      +      + 
    0.      -358.890m +      +      +  a   +      +      +      +      +      + 
    0.      -358.890m +      +      +  a   +      +      +      +      +      + 
    0.      -358.890m +      +      +  a   +      +      +      +      +      + 
    0.      -358.890m +      +      +  a   +      +      +      +      +      + 
    0.      -358.890m +      +      +  a   +      +      +      +      +      + 
    0.      -358.890m +      +      +  a   +      +      +      +      +      + 
    0.      -358.890m +      +      +  a   +      +      +      +      +      + 
    0.      -358.890m-+------+------+--a---+------+------+------+------+------+-
    0.      -358.890m +      +      +  a   +      +      +      +      +      + 
    0.      -358.890m +      +      +  a   +      +      +      +      +      + 
    0.      -358.890m +      +      +  a   +      +      +      +      +      + 
    0.      -358.890m +      +      +  a   +      +      +      +      +      + 
    0.      -358.890m +      +      +  a   +      +      +      +      +      + 
    0.      -358.890m +      +      +  a   +      +      +      +      +      + 
    0.      -358.890m +      +      +  a   +      +      +      +      +      + 
    0.      -358.890m +      +      +  a   +      +      +      +      +      + 
    0.      -358.890m +      +      +  a   +      +      +      +      +      + 
    0.      -358.890m-+------+------+--a---+------+------+------+------+------+-
    0.      -358.890m +      +      +  a   +      +      +      +      +      + 
    0.      -358.890m +      +      +  a   +      +      +      +      +      + 
    0.      -358.890m +      +      +  a   +      +      +      +      +      + 
    0.      -358.890m +      +      +  a   +      +      +      +      +      + 
    0.      -358.890m +      +      +  a   +      +      +      +      +      + 
    0.      -358.890m +      +      +  a   +      +      +      +      +      + 
    0.      -358.890m +      +      +  a   +      +      +      +      +      + 
    0.      -358.890m +      +      +  a   +      +      +      +      +      + 
    0.      -358.890m +      +      +  a   +      +      +      +      +      + 
    0.      -358.890m-+------+------+--a---+------+------+------+------+------+-
    0.      -358.890m +      +      +  a   +      +      +      +      +      + 
    0.      -358.890m +      +      +  a   +      +      +      +      +      + 
    0.      -358.890m +      +      +  a   +      +      +      +      +      + 
    0.      -358.890m +      +      +  a   +      +      +      +      +      + 
    0.      -358.890m +      +      +  a   +      +      +      +      +      + 
    0.      -358.890m +      +      +  a   +      +      +      +      +      + 
    0.      -358.890m +      +      +  a   +      +      +      +      +      + 
    0.      -358.890m +      +      +  a   +      +      +      +      +      + 
    0.      -358.890m +      +      +  a   +      +      +      +      +      + 
    0.      -358.890m-+------+------+--a---+------+------+------+------+------+-
    0.      -358.890m +      +      +  a   +      +      +      +      +      + 
    0.      -358.890m +      +      +  a   +      +      +      +      +      + 
    0.      -358.890m +      +      +  a   +      +      +      +      +      + 
    0.      -358.890m +      +      +  a   +      +      +      +      +      + 
    0.      -358.890m +      +      +  a   +      +      +      +      +      + 
    0.      -358.890m +      +      +  a   +      +      +      +      +      + 
    0.      -358.890m +      +      +  a   +      +      +      +      +      + 
    0.      -358.890m +      +      +  a   +      +      +      +      +      + 
    0.      -358.890m +      +      +  a   +      +      +      +      +      + 
    0.      -358.890m-+------+------+--a---+------+------+------+------+------+-
    0.      -358.890m +      +      +  a   +      +      +      +      +      + 
    0.      -358.890m +      +      +  a   +      +      +      +      +      + 
    0.      -358.890m +      +      +  a   +      +      +      +      +      + 
    0.      -358.890m +      +      +  a   +      +      +      +      +      + 
    0.      -358.890m +      +      +  a   +      +      +      +      +      + 
    0.      -358.890m +      +      +  a   +      +      +      +      +      + 
    0.      -358.890m +      +      +  a   +      +      +      +      +      + 
    0.      -358.890m +      +      +  a   +      +      +      +      +      + 
    0.      -358.890m +      +      +  a   +      +      +      +      +      + 
    0.      -358.890m-+------+------+--a---+------+------+------+------+------+-
    0.      -358.890m +      +      +  a   +      +      +      +      +      + 
    0.      -358.890m +      +      +  a   +      +      +      +      +      + 
    0.      -358.890m +      +      +  a   +      +      +      +      +      + 
    0.      -358.890m +      +      +  a   +      +      +      +      +      + 
    0.      -358.890m +      +      +  a   +      +      +      +      +      + 
    0.      -358.890m +      +      +  a   +      +      +      +      +      + 
    0.      -358.890m +      +      +  a   +      +      +      +      +      + 
    0.      -358.890m +      +      +  a   +      +      +      +      +      + 
    0.      -358.890m +      +      +  a   +      +      +      +      +      + 
    0.      -358.890m-+------+------+--a---+------+------+------+------+------+-
    0.      -358.890m +      +      +  a   +      +      +      +      +      + 
    0.      -358.890m +      +      +  a   +      +      +      +      +      + 
    0.      -358.890m +      +      +  a   +      +      +      +      +      + 
    0.      -358.890m +      +      +  a   +      +      +      +      +      + 
    0.      -358.890m +      +      +  a   +      +      +      +      +      + 
    0.      -358.890m +      +      +  a   +      +      +      +      +      + 
    0.      -358.890m +      +      +  a   +      +      +      +      +      + 
    0.      -358.890m +      +      +  a   +      +      +      +      +      + 
    0.      -358.890m +      +      +  a   +      +      +      +      +      + 
    0.      -358.890m-+------+------+--a---+------+------+------+------+------+-
    0.      -358.890m +      +      +  a   +      +      +      +      +      + 
    0.      -358.890m +      +      +  a   +      +      +      +      +      + 
    0.      -358.890m +      +      +  a   +      +      +      +      +      + 
    0.      -358.890m +      +      +  a   +      +      +      +      +      + 
    0.      -358.890m +      +      +  a   +      +      +      +      +      + 
    0.      -358.890m +      +      +  a   +      +      +      +      +      + 
    0.      -358.890m +      +      +  a   +      +      +      +      +      + 
    0.      -358.890m +      +      +  a   +      +      +      +      +      + 
    0.      -358.890m +      +      +  a   +      +      +      +      +      + 
    0.      -358.890m-+------+------+--a---+------+------+------+------+------+-
    0.      -358.890m +      +      +  a   +      +      +      +      +      + 
    0.      -358.890m +      +      +  a   +      +      +      +      +      + 
    0.      -358.890m +      +      +  a   +      +      +      +      +      + 
    0.      -358.890m +      +      +  a   +      +      +      +      +      + 
    0.      -358.890m +      +      +  a   +      +      +      +      +      + 
    0.      -358.890m +      +      +  a   +      +      +      +      +      + 
    0.      -358.890m +      +      +  a   +      +      +      +      +      + 
    0.      -358.890m +      +      +  a   +      +      +      +      +      + 
    0.      -358.890m +      +      +  a   +      +      +      +      +      + 
    0.      -358.890m-+------+------+--a---+------+------+------+------+------+-
    0.      -358.890m +      +      +  a   +      +      +      +      +      + 
    0.      -358.890m +      +      +  a   +      +      +      +      +      + 
    0.      -358.890m +      +      +  a   +      +      +      +      +      + 
    0.      -358.890m +      +      +  a   +      +      +      +      +      + 
    0.      -358.890m +      +      +  a   +      +      +      +      +      + 
    0.      -358.890m +      +      +  a   +      +      +      +      +      + 
    0.      -358.890m +      +      +  a   +      +      +      +      +      + 
    0.      -358.890m +      +      +  a   +      +      +      +      +      + 
    0.      -358.890m +      +      +  a   +      +      +      +      +      + 
    0.      -358.890m-+------+------+--a---+------+------+------+------+------+-
    0.      -358.890m +      +      +  a   +      +      +      +      +      + 
    0.      -358.890m +      +      +  a   +      +      +      +      +      + 
    0.      -358.890m +      +      +  a   +      +      +      +      +      + 
    0.      -358.890m +      +      +  a   +      +      +      +      +      + 
    0.      -358.890m +      +      +  a   +      +      +      +      +      + 
    0.      -358.890m +      +      +  a   +      +      +      +      +      + 
    0.      -358.890m +      +      +  a   +      +      +      +      +      + 
    0.      -358.890m +      +      +  a   +      +      +      +      +      + 
    0.      -358.890m +      +      +  a   +      +      +      +      +      + 
    0.      -358.890m-+------+------+--a---+------+------+------+------+------+-
    0.      -358.890m +      +      +  a   +      +      +      +      +      + 
    0.      -358.890m +      +      +  a   +      +      +      +      +      + 
    0.      -358.890m +      +      +  a   +      +      +      +      +      + 
    0.      -358.890m +      +      +  a   +      +      +      +      +      + 
    0.      -358.890m +      +      +  a   +      +      +      +      +      + 
    0.      -358.890m +      +      +  a   +      +      +      +      +      + 
    0.      -358.890m +      +      +  a   +      +      +      +      +      + 
    0.      -358.890m +      +      +  a   +      +      +      +      +      + 
    0.      -358.890m +      +      +  a   +      +      +      +      +      + 
    0.      -358.890m-+------+------+--a---+------+------+------+------+------+-
    0.      -358.890m +      +      +  a   +      +      +      +      +      + 
    0.      -358.890m +      +      +  a   +      +      +      +      +      + 
    0.      -358.890m +      +      +  a   +      +      +      +      +      + 
    0.      -358.890m +      +      +  a   +      +      +      +      +      + 
    0.      -358.890m +      +      +  a   +      +      +      +      +      + 
    0.      -358.890m +      +      +  a   +      +      +      +      +      + 
    0.      -358.890m +      +      +  a   +      +      +      +      +      + 
    0.      -358.890m +      +      +  a   +      +      +      +      +      + 
    0.      -358.890m +      +      +  a   +      +      +      +      +      + 
    0.      -358.890m-+------+------+--a---+------+------+------+------+------+-
    0.      -358.890m +      +      +  a   +      +      +      +      +      + 
    0.      -358.890m +      +      +  a   +      +      +      +      +      + 
    0.      -358.890m +      +      +  a   +      +      +      +      +      + 
    0.      -358.890m +      +      +  a   +      +      +      +      +      + 
    0.      -358.890m +      +      +  a   +      +      +      +      +      + 
    0.      -358.890m +      +      +  a   +      +      +      +      +      + 
    0.      -358.890m +      +      +  a   +      +      +      +      +      + 
    0.      -358.890m +      +      +  a   +      +      +      +      +      + 
    0.      -358.890m +      +      +  a   +      +      +      +      +      + 
    0.      -358.890m-+------+------+--a---+------+------+------+------+------+-
    0.      -358.890m +      +      +  a   +      +      +      +      +      + 
    0.      -358.890m +      +      +  a   +      +      +      +      +      + 
    0.      -358.890m +      +      +  a   +      +      +      +      +      + 
    0.      -358.890m +      +      +  a   +      +      +      +      +      + 
[...]
    0.       -35.889  +      +      +  a   +      +      +      +      +      + 
    0.       -35.889  +      +      +  a   +      +      +      +      +      + 
    0.       -35.889  +      +      +  a   +      +      +      +      +      + 
    0.       -35.889  +      +      +  a   +      +      +      +      +      + 
    0.       -35.889  +      +      +  a   +      +      +      +      +      + 
    0.       -35.889  +      +      +  a   +      +      +      +      +      + 
    0.       -35.889  +      +      +  a   +      +      +      +      +      + 
    0.       -35.889  +      +      +  a   +      +      +      +      +      + 
    0.       -35.889 -+------+------+--a---+------+------+------+------+------+-
    0.       -35.889  +      +      +  a   +      +      +      +      +      + 
    0.       -35.889  +      +      +  a   +      +      +      +      +      + 
    0.       -35.889  +      +      +  a   +      +      +      +      +      + 
    0.       -35.889  +      +      +  a   +      +      +      +      +      + 
    0.       -35.889  +      +      +  a   +      +      +      +      +      + 
    0.       -35.889  +      +      +  a   +      +      +      +      +      + 
    0.       -35.889  +      +      +  a   +      +      +      +      +      + 
    0.       -35.889  +      +      +  a   +      +      +      +      +      + 
    0.       -35.889  +      +      +  a   +      +      +      +      +      + 
    0.       -35.889 -+------+------+--a---+------+------+------+------+------+-
    0.       -35.889  +      +      +  a   +      +      +      +      +      + 
    0.       -35.889  +      +      +  a   +      +      +      +      +      + 
    0.       -35.889  +      +      +  a   +      +      +      +      +      + 
    0.       -35.889  +      +      +  a   +      +      +      +      +      + 
    0.       -35.889  +      +      +  a   +      +      +      +      +      + 
    0.       -35.889  +      +      +  a   +      +      +      +      +      + 
    0.       -35.889  +      +      +  a   +      +      +      +      +      + 
    0.       -35.889  +      +      +  a   +      +      +      +      +      + 
    0.       -35.889  +      +      +  a   +      +      +      +      +      + 
    0.       -35.889 -+------+------+--a---+------+------+------+------+------+-
    0.       -35.889  +      +      +  a   +      +      +      +      +      + 
    0.       -35.889  +      +      +  a   +      +      +      +      +      + 
    0.       -35.889  +      +      +  a   +      +      +      +      +      + 
    0.       -35.889  +      +      +  a   +      +      +      +      +      + 
    0.       -35.889  +      +      +  a   +      +      +      +      +      + 
    0.       -35.889  +      +      +  a   +      +      +      +      +      + 
    0.       -35.889  +      +      +  a   +      +      +      +      +      + 
    0.       -35.889  +      +      +  a   +      +      +      +      +      + 
    0.       -35.889  +      +      +  a   +      +      +      +      +      + 
    0.       -35.889 -+------+------+--a---+------+------+------+------+------+-
    0.       -35.889  +      +      +  a   +      +      +      +      +      + 
    0.       -35.889  +      +      +  a   +      +      +      +      +      + 
    0.       -35.889  +      +      +  a   +      +      +      +      +      + 
    0.       -35.889  +      +      +  a   +      +      +      +      +      + 
    0.       -35.889  +      +      +  a   +      +      +      +      +      + 
    0.       -35.889  +      +      +  a   +      +      +      +      +      + 
    0.       -35.889  +      +      +  a   +      +      +      +      +      + 
    0.       -35.889  +      +      +  a   +      +      +      +      +      + 
    0.       -35.889  +      +      +  a   +      +      +      +      +      + 
    0.       -35.889 -+------+------+--a---+------+------+------+------+------+-
    0.       -35.889  +      +      +  a   +      +      +      +      +      + 
    0.       -35.889  +      +      +  a   +      +      +      +      +      + 
    0.       -35.889  +      +      +  a   +      +      +      +      +      + 
    0.       -35.889  +      +      +  a   +      +      +      +      +      + 
    0.       -35.889  +      +      +  a   +      +      +      +      +      + 
    0.       -35.889  +      +      +  a   +      +      +      +      +      + 
    0.       -35.889  +      +      +  a   +      +      +      +      +      + 
    0.       -35.889  +      +      +  a   +      +      +      +      +      + 
    0.       -35.889  +      +      +  a   +      +      +      +      +      + 
    0.       -35.889 -+------+------+--a---+------+------+------+------+------+-
    0.       -35.889  +      +      +  a   +      +      +      +      +      + 
    0.       -35.889  +      +      +  a   +      +      +      +      +      + 
    0.       -35.889  +      +      +  a   +      +      +      +      +      + 
    0.       -35.889  +      +      +  a   +      +      +      +      +      + 
    0.       -35.889  +      +      +  a   +      +      +      +      +      + 
    0.       -35.889  +      +      +  a   +      +      +      +      +      + 
    0.       -35.889  +      +      +  a   +      +      +      +      +      + 
    0.       -35.889  +      +      +  a   +      +      +      +      +      + 
    0.       -35.889  +      +      +  a   +      +      +      +      +      + 
    0.       -35.889 -+------+------+--a---+------+------+------+------+------+-
    0.       -35.889  +      +      +  a   +      +      +      +      +      + 
    0.       -35.889  +      +      +  a   +      +      +      +      +      + 
    0.       -35.889  +      +      +  a   +      +      +      +      +      + 
    0.       -35.889  +      +      +  a   +      +      +      +      +      + 
    0.       -35.889  +      +      +  a   +      +      +      +      +      + 
    0.       -35.889  +      +      +  a   +      +      +      +      +      + 
    0.       -35.889  +      +      +  a   +      +      +      +      +      + 
    0.       -35.889  +      +      +  a   +      +      +      +      +      + 
    0.       -35.889  +      +      +  a   +      +      +      +      +      + 
    0.       -35.889 -+------+------+--a---+------+------+------+------+------+-
    0.       -35.889  +      +      +  a   +      +      +      +      +      + 
    0.       -35.889  +      +      +  a   +      +      +      +      +      + 
    0.       -35.889  +      +      +  a   +      +      +      +      +      + 
    0.       -35.889  +      +      +  a   +      +      +      +      +      + 
    0.       -35.889  +      +      +  a   +      +      +      +      +      + 
    0.       -35.889  +      +      +  a   +      +      +      +      +      + 
    0.       -35.889  +      +      +  a   +      +      +      +      +      + 
    0.       -35.889  +      +      +  a   +      +      +      +      +      + 
    0.       -35.889  +      +      +  a   +      +      +      +      +      + 
    0.       -35.889 -+------+------+--a---+------+------+------+------+------+-
    0.       -35.889  +      +      +  a   +      +      +      +      +      + 
    0.       -35.889  +      +      +  a   +      +      +      +      +      + 
    0.       -35.889  +      +      +  a   +      +      +      +      +      + 
    0.       -35.889  +      +      +  a   +      +      +      +      +      + 
    0.       -35.889  +      +      +  a   +      +      +      +      +      + 
    0.       -35.889  +      +      +  a   +      +      +      +      +      + 
    0.       -35.889  +      +      +  a   +      +      +      +      +      + 
    0.       -35.889  +      +      +  a   +      +      +      +      +      + 
    0.       -35.889  +      +      +  a   +      +      +      +      +      + 
    0.       -35.889 -+------+------+--a---+------+------+------+------+------+-
    0.       -35.889  +      +      +  a   +      +      +      +      +      + 
    0.       -35.889  +      +      +  a   +      +      +      +      +      + 
    0.       -35.889  +      +      +  a   +      +      +      +      +      + 
    0.       -35.889  +      +      +  a   +      +      +      +      +      + 
    0.       -35.889  +      +      +  a   +      +      +      +      +      + 
    0.       -35.889  +      +      +  a   +      +      +      +      +      + 
    0.       -35.889  +      +      +  a   +      +      +      +      +      + 
    0.       -35.889  +      +      +  a   +      +      +      +      +      + 
    0.       -35.889  +      +      +  a   +      +      +      +      +      + 
    0.       -35.889 -+------+------+--a---+------+------+------+------+------+-
    0.       -35.889  +      +      +  a   +      +      +      +      +      + 
    0.       -35.889  +      +      +  a   +      +      +      +      +      + 
    0.       -35.889  +      +      +  a   +      +      +      +      +      + 
    0.       -35.889  +      +      +  a   +      +      +      +      +      + 
    0.       -35.889  +      +      +  a   +      +      +      +      +      + 
    0.       -35.889  +      +      +  a   +      +      +      +      +      + 
    0.       -35.889  +      +      +  a   +      +      +      +      +      + 
    0.       -35.889  +      +      +  a   +      +      +      +      +      + 
    0.       -35.889  +      +      +  a   +      +      +      +      +      + 
    0.       -35.889 -+------+------+--a---+------+------+------+------+------+-
    0.       -35.889  +      +      +  a   +      +      +      +      +      + 
    0.       -35.889  +      +      +  a   +      +      +      +      +      + 
    0.       -35.889  +      +      +  a   +      +      +      +      +      + 
    0.       -35.889  +      +      +  a   +      +      +      +      +      + 
    0.       -35.889  +      +      +  a   +      +      +      +      +      + 
    0.       -35.889  +      +      +  a   +      +      +      +      +      + 
    0.       -35.889  +      +      +  a   +      +      +      +      +      + 
    0.       -35.889  +      +      +  a   +      +      +      +      +      + 
    0.       -35.889  +      +      +  a   +      +      +      +      +      + 
    0.       -35.889 -+------+------+--a---+------+------+------+------+------+-
    0.       -35.889  +      +      +  a   +      +      +      +      +      + 
    0.       -35.889  +      +      +  a   +      +      +      +      +      + 
    0.       -35.889  +      +      +  a   +      +      +      +      +      + 
    0.       -35.889  +      +      +  a   +      +      +      +      +      + 
    0.       -35.889  +      +      +  a   +      +      +      +      +      + 
    0.       -35.889  +      +      +  a   +      +      +      +      +      + 
    0.       -35.889  +      +      +  a   +      +      +      +      +      + 
    0.       -35.889  +      +      +  a   +      +      +      +      +      + 
    0.       -35.889  +      +      +  a   +      +      +      +      +      + 
    0.       -35.889 -+------+------+--a---+------+------+------+------+------+-
    0.       -35.889  +      +      +  a   +      +      +      +      +      + 
    0.       -35.889  +      +      +  a   +      +      +      +      +      + 
    0.       -35.889  +      +      +  a   +      +      +      +      +      + 
    0.       -35.889  +      +      +  a   +      +      +      +      +      + 
    0.       -35.889  +      +      +  a   +      +      +      +      +      + 
    0.       -35.889  +      +      +  a   +      +      +      +      +      + 
    0.       -35.889  +      +      +  a   +      +      +      +      +      + 
    0.       -35.889  +      +      +  a   +      +      +      +      +      + 
    0.       -35.889  +      +      +  a   +      +      +      +      +      + 
    0.       -35.889 -+------+------+--a---+------+------+------+------+------+-
    0.       -35.889  +      +      +  a   +      +      +      +      +      + 
    0.       -35.889  +      +      +  a   +      +      +      +      +      + 
    0.       -35.889  +      +      +  a   +      +      +      +      +      + 
    0.       -35.889  +      +      +  a   +      +      +      +      +      + 
    0.       -35.889  +      +      +  a   +      +      +      +      +      + 
    0.       -35.889  +      +      +  a   +      +      +      +      +      + 
    0.       -35.889  +      +      +  a   +      +      +      +      +      + 
    0.       -35.889  +      +      +  a   +      +      +      +      +      + 
    0.       -35.889  +      +      +  a   +      +      +      +      +      + 
    0.       -35.889 -+------+------+--a---+------+------+------+------+------+-
    0.       -35.889  +      +      +  a   +      +      +      +      +      + 
    0.       -35.889  +      +      +  a   +      +      +      +      +      + 
    0.       -35.889  +      +      +  a   +      +      +      +      +      + 
    0.       -35.889  +      +      +  a   +      +      +      +      +      + 
    0.       -35.889  +      +      +  a   +      +      +      +      +      + 
    0.       -35.889  +      +      +  a   +      +      +      +      +      + 
    0.       -35.889  +      +      +  a   +      +      +      +      +      + 
    0.       -35.889  +      +      +  a   +      +      +      +      +      + 
    0.       -35.889  +      +      +  a   +      +      +      +      +      + 
    0.       -35.889 -+------+------+--a---+------+------+------+------+------+-
    0.       -35.889  +      +      +  a   +      +      +      +      +      + 
    0.       -35.889  +      +      +  a   +      +      +      +      +      + 
    0.       -35.889  +      +      +  a   +      +      +      +      +      + 
    0.       -35.889  +      +      +  a   +      +      +      +      +      + 
    0.       -35.889  +      +      +  a   +      +      +      +      +      + 
    0.       -35.889  +      +      +  a   +      +      +      +      +      + 
    0.       -35.889  +      +      +  a   +      +      +      +      +      + 
    0.       -35.889  +      +      +  a   +      +      +      +      +      + 
    0.       -35.889  +      +      +  a   +      +      +      +      +      + 
    0.       -35.889 -+------+------+--a---+------+------+------+------+------+-
    0.       -35.889  +      +      +  a   +      +      +      +      +      + 
    0.       -35.889  +      +      +  a   +      +      +      +      +      + 
    0.       -35.889  +      +      +  a   +      +      +      +      +      + 
    0.       -35.889  +      +      +  a   +      +      +      +      +      + 
    0.       -35.889  +      +      +  a   +      +      +      +      +      + 
    0.       -35.889  +      +      +  a   +      +      +      +      +      + 
    0.       -35.889  +      +      +  a   +      +      +      +      +      + 
    0.       -35.889  +      +      +  a   +      +      +      +      +      + 
    0.       -35.889  +      +      +  a   +      +      +      +      +      + 
    0.       -35.889 -+------+------+--a---+------+------+------+------+------+-
    0.       -35.889  +      +      +  a   +      +      +      +      +      + 
    0.       -35.889  +      +      +  a   +      +      +      +      +      + 
    0.       -35.889  +      +      +  a   +      +      +      +      +      + 
    0.       -35.889  +      +      +  a   +      +      +      +      +      + 
    0.       -35.889  +      +      +  a   +      +      +      +      +      + 
    0.       -35.889  +      +      +  a   +      +      +      +      +      + 
    0.       -35.889  +      +      +  a   +      +      +      +      +      + 
    0.       -35.889  +      +      +  a   +      +      +      +      +      + 
    0.       -35.889  +      +      +  a   +      +      +      +      +      + 
    0.       -35.889 -+------+------+--a---+------+------+------+------+------+-
    0.       -35.889  +      +      +  a   +      +      +      +      +      + 
    0.       -35.889  +      +      +  a   +      +      +      +      +      + 
    0.       -35.889  +      +      +  a   +      +      +      +      +      + 
    0.       -35.889  +      +      +  a   +      +      +      +      +      + 
    0.       -35.889  +      +      +  a   +      +      +      +      +      + 
    0.       -35.889  +      +      +  a   +      +      +      +      +      + 
    0.       -35.889  +      +      +  a   +      +      +      +      +      + 
    0.       -35.889  +      +      +  a   +      +      +      +      +      + 
    0.       -35.889  +      +      +  a   +      +      +      +      +      + 
    0.       -35.889 -+------+------+--a---+------+------+------+------+------+-
    0.       -35.889  +      +      +  a   +      +      +      +      +      + 
    0.       -35.889  +      +      +  a   +      +      +      +      +      + 
    0.       -35.889  +      +      +  a   +      +      +      +      +      + 
    0.       -35.889  +      +      +  a   +      +      +      +      +      + 
    0.       -35.889  +      +      +  a   +      +      +      +      +      + 
    0.       -35.889  +      +      +  a   +      +      +      +      +      + 
    0.       -35.889  +      +      +  a   +      +      +      +      +      + 
    0.       -35.889  +      +      +  a   +      +      +      +      +      + 
    0.       -35.889  +      +      +  a   +      +      +      +      +      + 
    0.       -35.889 -+------+------+--a---+------+------+------+------+------+-
    0.       -35.889  +      +      +  a   +      +      +      +      +      + 
    0.       -35.889  +      +      +  a   +      +      +      +      +      + 
    0.       -35.889  +      +      +  a   +      +      +      +      +      + 
    0.       -35.889  +      +      +  a   +      +      +      +      +      + 
    0.       -35.889  +      +      +  a   +      +      +      +      +      + 
                      +             +             +             +             + 

b


          ***** job concluded
1****** HSPICE -- H-2013.03-SP2 64-BIT (Aug 26 2013) win64 ******               
 ******  
 normal crossbar with normal transistors and small resistance range of memristors

  ******  job statistics summary tnom=  25.000 temp=  25.000 *****

  ******  HSPICE Threads Information  ******

  Command Line Threads Count :     1
  Available CPU Count        :     8
  Actual Threads Count       :     1


  ******  Circuit Statistics  ******
  # nodes       =      46 # elements   =      19
  # resistors   =       2 # capacitors =       0 # inductors   =       0
  # mutual_inds =       0 # vccs       =       0 # vcvs        =       0
  # cccs        =       0 # ccvs       =       1 # volt_srcs   =       8
  # curr_srcs   =       0 # diodes     =       0 # bjts        =       0
  # jfets       =       0 # mosfets    =       4 # U elements  =       0
  # T elements  =       0 # W elements =       0 # B elements  =       0
  # S elements  =       0 # P elements =       0 # va device   =       4
  # vector_srcs =       0 # N elements =       0


  ******  Runtime Statistics (seconds)  ******

  analysis           time    # points   tot. iter  conv.iter
  op point           0.00           1          53
  transient         54.97        2006     2339685     1020217 rev=      5891
  readin             2.41
  errchk             0.01
  setup              0.00
  output             0.00


           peak memory used         48.63 megabytes
           total cpu time           57.39 seconds
           total elapsed time       57.42 seconds
           job started at     12:14:33 07/10/2013
           job ended   at     12:15:30 07/10/2013


  lic: Release hspice token(s) 
 lic: total license checkout elapse time:        0.02(s)
