$DATA1 SOURCE='HSPICE' VERSION='H-2013.03-SP2 64-BIT'
.TITLE 'new crossbar with ideal transistors and big resistance range of memristo'
 avgpower         avg_error        avg_expected_output  
 t0000_1111       t1111_0000       temper           alter#            
  2.242e-06        1.968e-04          1.0145         9.538e-17        
 -9.537e-17         25.0000        1                 
