$DATA1 SOURCE='HSPICE' VERSION='H-2013.03-SP2 64-BIT'
.TITLE 'new crossbar with ideal transistors and small resistance range of memris'
 avgpower         avg_error        avg_expected_output  
 t0000_1111       t1111_0000       temper           alter#            
  2.242e-06        2.430e-04          1.0145         1.185e-16        
 -1.185e-16         25.0000        1                 
