$DATA1 SOURCE='HSPICE' VERSION='H-2013.03-SP2 64-BIT'
.TITLE 'new crossbar with normal transistors and small resistance range of memri'
 avgpower         avg_error        avg_expected_output  
 t0000_1111       t1111_0000       temper           alter#            
  1.318e-05          0.2274           1.0145         6.995e-13        
  5.195e-13         25.0000        1                 
