$DATA1 SOURCE='HSPICE' VERSION='H-2013.03-SP2 64-BIT'
.TITLE 'normal crossbar with ideal transistors and small resistance range of mem'
 avgpower         avg_error        avg_expected_output  
 t0000_1111       t1111_0000       temper           alter#            
  2.242e-06         -0.5031           1.0145        -1.666e-13        
  1.666e-13         25.0000        1                 
